<?xml version="1.0" encoding="UTF-8"?>

<!-- generated on Thu 04 Jul 2019 12:43:29 AM EDT by Netedit Version 0.30.0
<?xml version="1.0" encoding="UTF-8"?>

<configuration xmlns:xsi="http://www.w3.org/2001/XMLSchema-instance" xsi:noNamespaceSchemaLocation="http://sumo.dlr.de/xsd/netconvertConfiguration.xsd">

    <input>
        <sumo-net-file value="/home/ammarhydr/Rl_files/mysumo/Network/new_mixed_net.net.xml"/>
    </input>

    <output>
        <output-file value="/home/ammarhydr/Rl_files/mysumo/Network/new_mixed_net.net.xml"/>
    </output>

    <processing>
        <no-turnarounds value="true"/>
        <offset.disable-normalization value="true"/>
        <lefthand value="false"/>
        <junctions.corner-detail value="0"/>
        <rectangular-lane-cut value="false"/>
    </processing>

</configuration>
-->

<net version="0.27" xmlns:xsi="http://www.w3.org/2001/XMLSchema-instance" xsi:noNamespaceSchemaLocation="http://sumo.dlr.de/xsd/net_file.xsd">

    <location netOffset="0.00,0.00" convBoundary="-500.00,-1500.00,1500.00,500.00" origBoundary="-10000000000.00,-10000000000.00,10000000000.00,10000000000.00" projParameter="!"/>

    <edge id=":gneJ1_0" function="internal">
        <lane id=":gneJ1_0_0" index="0" speed="13.89" length="5.00" shape="-11.55,14.65 -11.74,13.29 -12.32,12.33 -13.29,11.74 -14.65,11.55"/>
    </edge>
    <edge id=":gneJ1_1" function="internal">
        <lane id=":gneJ1_1_0" index="0" speed="13.89" length="29.30" shape="-11.55,14.65 -11.55,-14.65"/>
        <lane id=":gneJ1_1_1" index="1" speed="13.89" length="29.30" shape="-8.25,14.65 -8.25,-14.65"/>
        <lane id=":gneJ1_1_2" index="2" speed="13.89" length="29.30" shape="-4.95,14.65 -4.95,-14.65"/>
    </edge>
    <edge id=":gneJ1_4" function="internal">
        <lane id=":gneJ1_4_0" index="0" speed="13.89" length="14.22" shape="-1.65,14.65 -0.63,7.52 2.43,2.42 3.35,1.87"/>
    </edge>
    <edge id=":gneJ1_21" function="internal">
        <lane id=":gneJ1_21_0" index="0" speed="13.89" length="12.07" shape="3.35,1.87 7.52,-0.63 14.65,-1.65"/>
    </edge>
    <edge id=":gneJ1_5" function="internal">
        <lane id=":gneJ1_5_0" index="0" speed="13.89" length="5.00" shape="14.65,11.55 13.29,11.74 12.32,12.32 11.74,13.29 11.55,14.65"/>
    </edge>
    <edge id=":gneJ1_6" function="internal">
        <lane id=":gneJ1_6_0" index="0" speed="13.89" length="29.30" shape="14.65,11.55 -14.65,11.55"/>
        <lane id=":gneJ1_6_1" index="1" speed="13.89" length="29.30" shape="14.65,8.25 -14.65,8.25"/>
        <lane id=":gneJ1_6_2" index="2" speed="13.89" length="29.30" shape="14.65,4.95 -14.65,4.95"/>
    </edge>
    <edge id=":gneJ1_9" function="internal">
        <lane id=":gneJ1_9_0" index="0" speed="13.89" length="14.22" shape="14.65,1.65 7.52,0.63 2.42,-2.43 1.87,-3.35"/>
    </edge>
    <edge id=":gneJ1_22" function="internal">
        <lane id=":gneJ1_22_0" index="0" speed="13.89" length="12.07" shape="1.87,-3.35 -0.63,-7.52 -1.65,-14.65"/>
    </edge>
    <edge id=":gneJ1_10" function="internal">
        <lane id=":gneJ1_10_0" index="0" speed="13.89" length="5.00" shape="11.55,-14.65 11.74,-13.29 12.33,-12.32 13.29,-11.74 14.65,-11.55"/>
    </edge>
    <edge id=":gneJ1_11" function="internal">
        <lane id=":gneJ1_11_0" index="0" speed="13.89" length="29.30" shape="11.55,-14.65 11.55,14.65"/>
        <lane id=":gneJ1_11_1" index="1" speed="13.89" length="29.30" shape="8.25,-14.65 8.25,14.65"/>
        <lane id=":gneJ1_11_2" index="2" speed="13.89" length="29.30" shape="4.95,-14.65 4.95,14.65"/>
    </edge>
    <edge id=":gneJ1_14" function="internal">
        <lane id=":gneJ1_14_0" index="0" speed="13.89" length="14.22" shape="1.65,-14.65 0.63,-7.52 -2.42,-2.43 -3.35,-1.87"/>
    </edge>
    <edge id=":gneJ1_23" function="internal">
        <lane id=":gneJ1_23_0" index="0" speed="13.89" length="12.07" shape="-3.35,-1.87 -7.52,0.63 -14.65,1.65"/>
    </edge>
    <edge id=":gneJ1_15" function="internal">
        <lane id=":gneJ1_15_0" index="0" speed="13.89" length="5.00" shape="-14.65,-11.55 -13.29,-11.74 -12.33,-12.33 -11.74,-13.29 -11.55,-14.65"/>
    </edge>
    <edge id=":gneJ1_16" function="internal">
        <lane id=":gneJ1_16_0" index="0" speed="13.89" length="29.30" shape="-14.65,-11.55 14.65,-11.55"/>
        <lane id=":gneJ1_16_1" index="1" speed="13.89" length="29.30" shape="-14.65,-8.25 14.65,-8.25"/>
        <lane id=":gneJ1_16_2" index="2" speed="13.89" length="29.30" shape="-14.65,-4.95 14.65,-4.95"/>
    </edge>
    <edge id=":gneJ1_19" function="internal">
        <lane id=":gneJ1_19_0" index="0" speed="13.89" length="14.22" shape="-14.65,-1.65 -7.52,-0.63 -2.43,2.42 -1.87,3.35"/>
    </edge>
    <edge id=":gneJ1_20" function="internal">
        <lane id=":gneJ1_20_0" index="0" speed="13.89" length="2.41" shape="-14.65,-1.65 -13.41,-0.83 -13.00,0.00"/>
    </edge>
    <edge id=":gneJ1_24" function="internal">
        <lane id=":gneJ1_24_0" index="0" speed="13.89" length="12.07" shape="-1.87,3.35 0.63,7.52 1.65,14.65"/>
    </edge>
    <edge id=":gneJ1_25" function="internal">
        <lane id=":gneJ1_25_0" index="0" speed="13.89" length="2.41" shape="-13.00,0.00 -13.41,0.83 -14.65,1.65"/>
    </edge>
    <edge id=":gneJ18_0" function="internal">
        <lane id=":gneJ18_0_0" index="0" speed="13.89" length="17.90" shape="11.55,500.00 5.78,508.66 0.00,511.55 -5.78,508.66 -11.55,500.00"/>
        <lane id=":gneJ18_0_1" index="1" speed="13.89" length="17.90" shape="8.25,500.00 4.12,506.19 0.00,508.25 -4.12,506.19 -8.25,500.00"/>
        <lane id=":gneJ18_0_2" index="2" speed="13.89" length="17.90" shape="8.25,500.00 4.95,504.95 1.65,506.60 -1.65,504.95 -4.95,500.00"/>
        <lane id=":gneJ18_0_3" index="3" speed="13.89" length="17.90" shape="4.95,500.00 1.65,504.95 -1.65,506.60 -4.95,504.95 -8.25,500.00"/>
        <lane id=":gneJ18_0_4" index="4" speed="13.89" length="17.90" shape="4.95,500.00 2.48,503.71 0.00,504.95 -2.48,503.71 -4.95,500.00"/>
        <lane id=":gneJ18_0_5" index="5" speed="13.89" length="17.90" shape="1.65,500.00 0.00,502.48 -1.65,503.30 -3.30,502.48 -4.95,500.00"/>
        <lane id=":gneJ18_0_6" index="6" speed="13.89" length="17.90" shape="1.65,500.00 0.83,501.24 0.00,501.65 -0.83,501.24 -1.65,500.00"/>
    </edge>
    <edge id=":gneJ19_0" function="internal">
        <lane id=":gneJ19_0_0" index="0" speed="13.89" length="19.28" shape="-500.00,11.55 -508.66,5.78 -511.55,0.00 -508.66,-5.78 -500.00,-11.55"/>
        <lane id=":gneJ19_0_1" index="1" speed="13.89" length="19.28" shape="-500.00,8.25 -506.19,4.12 -508.25,0.00 -506.19,-4.12 -500.00,-8.25"/>
        <lane id=":gneJ19_0_2" index="2" speed="13.89" length="19.28" shape="-500.00,4.95 -503.71,2.48 -504.95,0.00 -503.71,-2.48 -500.00,-4.95"/>
        <lane id=":gneJ19_0_3" index="3" speed="13.89" length="19.28" shape="-500.00,1.65 -501.24,0.83 -501.65,0.00 -501.24,-0.83 -500.00,-1.65"/>
    </edge>
    <edge id=":gneJ2_0" function="internal">
        <lane id=":gneJ2_0_0" index="0" speed="13.89" length="5.00" shape="991.75,14.65 991.56,13.29 990.98,12.32 990.01,11.74 988.65,11.55"/>
    </edge>
    <edge id=":gneJ2_1" function="internal">
        <lane id=":gneJ2_1_0" index="0" speed="13.89" length="29.30" shape="991.75,14.65 991.75,-14.65"/>
        <lane id=":gneJ2_1_1" index="1" speed="13.89" length="29.30" shape="995.05,14.65 995.05,-14.65"/>
        <lane id=":gneJ2_1_2" index="2" speed="13.89" length="29.30" shape="998.35,14.65 998.35,-14.65"/>
    </edge>
    <edge id=":gneJ2_4" function="internal">
        <lane id=":gneJ2_4_0" index="0" speed="13.89" length="9.23" shape="998.35,14.65 999.16,7.52 1000.05,5.66"/>
    </edge>
    <edge id=":gneJ2_22" function="internal">
        <lane id=":gneJ2_22_0" index="0" speed="13.89" length="14.45" shape="1000.05,5.66 1001.60,2.42 1005.66,-0.63 1011.35,-1.65"/>
    </edge>
    <edge id=":gneJ2_5" function="internal">
        <lane id=":gneJ2_5_0" index="0" speed="13.89" length="5.00" shape="1011.35,11.55 1009.99,11.74 1009.02,12.32 1008.44,13.29 1008.25,14.65"/>
    </edge>
    <edge id=":gneJ2_6" function="internal">
        <lane id=":gneJ2_6_0" index="0" speed="13.89" length="22.70" shape="1011.35,11.55 988.65,11.55"/>
        <lane id=":gneJ2_6_1" index="1" speed="13.89" length="22.70" shape="1011.35,8.25 988.65,8.25"/>
        <lane id=":gneJ2_6_2" index="2" speed="13.89" length="22.70" shape="1011.35,4.95 988.65,4.95"/>
        <lane id=":gneJ2_6_3" index="3" speed="13.89" length="22.70" shape="1011.35,1.65 988.65,1.65"/>
    </edge>
    <edge id=":gneJ2_10" function="internal">
        <lane id=":gneJ2_10_0" index="0" speed="13.89" length="6.91" shape="1011.35,1.65 1005.66,0.63 1004.76,-0.05"/>
    </edge>
    <edge id=":gneJ2_23" function="internal">
        <lane id=":gneJ2_23_0" index="0" speed="13.89" length="16.77" shape="1004.76,-0.05 1001.60,-2.43 999.16,-7.52 998.35,-14.65"/>
    </edge>
    <edge id=":gneJ2_11" function="internal">
        <lane id=":gneJ2_11_0" index="0" speed="13.89" length="5.00" shape="1008.25,-14.65 1008.44,-13.29 1009.02,-12.32 1009.99,-11.74 1011.35,-11.55"/>
    </edge>
    <edge id=":gneJ2_12" function="internal">
        <lane id=":gneJ2_12_0" index="0" speed="13.89" length="29.30" shape="1008.25,-14.65 1008.25,14.65"/>
        <lane id=":gneJ2_12_1" index="1" speed="13.89" length="29.30" shape="1004.95,-14.65 1004.95,14.65"/>
        <lane id=":gneJ2_12_2" index="2" speed="13.89" length="29.30" shape="1001.65,-14.65 1001.65,14.65"/>
    </edge>
    <edge id=":gneJ2_15" function="internal">
        <lane id=":gneJ2_15_0" index="0" speed="13.89" length="9.23" shape="1001.65,-14.65 1000.84,-7.52 999.95,-5.66"/>
    </edge>
    <edge id=":gneJ2_24" function="internal">
        <lane id=":gneJ2_24_0" index="0" speed="13.89" length="14.45" shape="999.95,-5.66 998.40,-2.42 994.34,0.63 988.65,1.65"/>
    </edge>
    <edge id=":gneJ2_16" function="internal">
        <lane id=":gneJ2_16_0" index="0" speed="13.89" length="5.00" shape="988.65,-11.55 990.01,-11.74 990.98,-12.33 991.56,-13.29 991.75,-14.65"/>
    </edge>
    <edge id=":gneJ2_17" function="internal">
        <lane id=":gneJ2_17_0" index="0" speed="13.89" length="22.70" shape="988.65,-11.55 1011.35,-11.55"/>
        <lane id=":gneJ2_17_1" index="1" speed="13.89" length="22.70" shape="988.65,-8.25 1011.35,-8.25"/>
        <lane id=":gneJ2_17_2" index="2" speed="13.89" length="22.70" shape="988.65,-4.95 1011.35,-4.95"/>
        <lane id=":gneJ2_17_3" index="3" speed="13.89" length="22.70" shape="988.65,-1.65 1011.35,-1.65"/>
    </edge>
    <edge id=":gneJ2_21" function="internal">
        <lane id=":gneJ2_21_0" index="0" speed="13.89" length="6.91" shape="988.65,-1.65 994.34,-0.63 995.24,0.05"/>
    </edge>
    <edge id=":gneJ2_25" function="internal">
        <lane id=":gneJ2_25_0" index="0" speed="13.89" length="16.77" shape="995.24,0.05 998.40,2.42 1000.84,7.52 1001.65,14.65"/>
    </edge>
    <edge id=":gneJ3_0" function="internal">
        <lane id=":gneJ3_0_0" index="0" speed="13.89" length="5.00" shape="-11.55,-985.35 -11.74,-986.71 -12.32,-987.67 -13.29,-988.26 -14.65,-988.45"/>
    </edge>
    <edge id=":gneJ3_1" function="internal">
        <lane id=":gneJ3_1_0" index="0" speed="13.89" length="29.30" shape="-8.25,-985.35 -8.25,-1014.65"/>
        <lane id=":gneJ3_1_1" index="1" speed="13.89" length="29.30" shape="-4.95,-985.35 -4.95,-1014.65"/>
        <lane id=":gneJ3_1_2" index="2" speed="13.89" length="29.30" shape="-1.65,-985.35 -1.65,-1014.65"/>
    </edge>
    <edge id=":gneJ3_4" function="internal">
        <lane id=":gneJ3_4_0" index="0" speed="13.89" length="8.53" shape="-1.65,-985.35 -0.63,-992.48 0.05,-993.62"/>
    </edge>
    <edge id=":gneJ3_21" function="internal">
        <lane id=":gneJ3_21_0" index="0" speed="13.89" length="17.76" shape="0.05,-993.62 2.43,-997.58 7.52,-1000.63 14.65,-1001.65"/>
    </edge>
    <edge id=":gneJ3_5" function="internal">
        <lane id=":gneJ3_5_0" index="0" speed="13.89" length="5.00" shape="14.65,-988.45 13.29,-988.26 12.32,-987.68 11.74,-986.71 11.55,-985.35"/>
    </edge>
    <edge id=":gneJ3_6" function="internal">
        <lane id=":gneJ3_6_0" index="0" speed="13.89" length="29.30" shape="14.65,-991.75 -14.65,-991.75"/>
        <lane id=":gneJ3_6_1" index="1" speed="13.89" length="29.30" shape="14.65,-995.05 -14.65,-995.05"/>
        <lane id=":gneJ3_6_2" index="2" speed="13.89" length="29.30" shape="14.65,-998.35 -14.65,-998.35"/>
    </edge>
    <edge id=":gneJ3_9" function="internal">
        <lane id=":gneJ3_9_0" index="0" speed="13.89" length="8.53" shape="14.65,-998.35 7.52,-999.37 6.38,-1000.05"/>
    </edge>
    <edge id=":gneJ3_22" function="internal">
        <lane id=":gneJ3_22_0" index="0" speed="13.89" length="17.76" shape="6.38,-1000.05 2.43,-1002.43 -0.63,-1007.52 -1.65,-1014.65"/>
    </edge>
    <edge id=":gneJ3_10" function="internal">
        <lane id=":gneJ3_10_0" index="0" speed="13.89" length="5.00" shape="11.55,-1014.65 11.74,-1013.29 12.33,-1012.33 13.29,-1011.74 14.65,-1011.55"/>
    </edge>
    <edge id=":gneJ3_11" function="internal">
        <lane id=":gneJ3_11_0" index="0" speed="13.89" length="29.30" shape="11.55,-1014.65 11.55,-985.35"/>
        <lane id=":gneJ3_11_1" index="1" speed="13.89" length="29.30" shape="8.25,-1014.65 8.25,-985.35"/>
        <lane id=":gneJ3_11_2" index="2" speed="13.89" length="29.30" shape="4.95,-1014.65 4.95,-985.35"/>
        <lane id=":gneJ3_11_3" index="3" speed="13.89" length="29.30" shape="1.65,-1014.65 1.65,-985.35"/>
    </edge>
    <edge id=":gneJ3_15" function="internal">
        <lane id=":gneJ3_15_0" index="0" speed="13.89" length="8.53" shape="1.65,-1014.65 0.63,-1007.52 -0.05,-1006.38"/>
    </edge>
    <edge id=":gneJ3_23" function="internal">
        <lane id=":gneJ3_23_0" index="0" speed="13.89" length="17.76" shape="-0.05,-1006.38 -2.42,-1002.42 -7.52,-999.37 -14.65,-998.35"/>
    </edge>
    <edge id=":gneJ3_16" function="internal">
        <lane id=":gneJ3_16_0" index="0" speed="13.89" length="5.00" shape="-14.65,-1011.55 -13.29,-1011.74 -12.33,-1012.32 -11.74,-1013.29 -11.55,-1014.65"/>
    </edge>
    <edge id=":gneJ3_17" function="internal">
        <lane id=":gneJ3_17_0" index="0" speed="13.89" length="29.30" shape="-14.65,-1008.25 14.65,-1008.25"/>
        <lane id=":gneJ3_17_1" index="1" speed="13.89" length="29.30" shape="-14.65,-1004.95 14.65,-1004.95"/>
        <lane id=":gneJ3_17_2" index="2" speed="13.89" length="29.30" shape="-14.65,-1001.65 14.65,-1001.65"/>
    </edge>
    <edge id=":gneJ3_20" function="internal">
        <lane id=":gneJ3_20_0" index="0" speed="13.89" length="8.53" shape="-14.65,-1001.65 -7.52,-1000.63 -6.38,-999.95"/>
    </edge>
    <edge id=":gneJ3_24" function="internal">
        <lane id=":gneJ3_24_0" index="0" speed="13.89" length="17.76" shape="-6.38,-999.95 -2.42,-997.57 0.63,-992.48 1.65,-985.35"/>
    </edge>
    <edge id=":gneJ4_0" function="internal">
        <lane id=":gneJ4_0_0" index="0" speed="13.89" length="9.47" shape="991.75,-985.35 991.56,-986.71 990.98,-987.67 990.01,-988.26 988.65,-988.45"/>
        <lane id=":gneJ4_0_1" index="1" speed="13.89" length="9.47" shape="995.05,-985.35 994.65,-988.15 993.45,-990.15 991.45,-991.35 988.65,-991.75"/>
        <lane id=":gneJ4_0_2" index="2" speed="13.89" length="9.47" shape="995.05,-985.35 994.65,-989.59 993.45,-992.62 991.45,-994.44 988.65,-995.05"/>
    </edge>
    <edge id=":gneJ4_3" function="internal">
        <lane id=":gneJ4_3_0" index="0" speed="13.89" length="25.09" shape="998.35,-985.35 999.16,-993.93 1001.60,-1000.05 1005.66,-1003.73 1011.35,-1004.95"/>
        <lane id=":gneJ4_3_1" index="1" speed="13.89" length="25.09" shape="998.35,-985.35 999.16,-992.48 1001.60,-997.58 1005.66,-1000.63 1011.35,-1001.65"/>
    </edge>
    <edge id=":gneJ4_5" function="internal">
        <lane id=":gneJ4_5_0" index="0" speed="13.89" length="5.00" shape="1011.35,-988.45 1009.99,-988.26 1009.02,-987.68 1008.44,-986.71 1008.25,-985.35"/>
    </edge>
    <edge id=":gneJ4_6" function="internal">
        <lane id=":gneJ4_6_0" index="0" speed="13.89" length="22.70" shape="1011.35,-991.75 988.65,-991.75"/>
        <lane id=":gneJ4_6_1" index="1" speed="13.89" length="22.70" shape="1011.35,-995.05 988.65,-995.05"/>
        <lane id=":gneJ4_6_2" index="2" speed="13.89" length="22.70" shape="1011.35,-998.35 988.65,-998.35"/>
    </edge>
    <edge id=":gneJ4_9" function="internal">
        <lane id=":gneJ4_9_0" index="0" speed="13.89" length="22.70" shape="988.65,-1011.55 1011.35,-1011.55"/>
        <lane id=":gneJ4_9_1" index="1" speed="13.89" length="22.70" shape="988.65,-1008.25 1011.35,-1008.25"/>
        <lane id=":gneJ4_9_2" index="2" speed="13.89" length="22.70" shape="988.65,-1004.95 1011.35,-1004.95"/>
    </edge>
    <edge id=":gneJ4_12" function="internal">
        <lane id=":gneJ4_12_0" index="0" speed="13.89" length="10.27" shape="988.65,-1004.95 995.78,-1003.73 1000.88,-1000.05 1000.92,-999.95"/>
        <lane id=":gneJ4_12_1" index="1" speed="13.89" length="10.27" shape="988.65,-1001.65 994.34,-1000.63 995.24,-999.95"/>
    </edge>
    <edge id=":gneJ4_14" function="internal">
        <lane id=":gneJ4_14_0" index="0" speed="13.89" length="15.37" shape="1000.92,-999.95 1003.93,-993.92 1004.95,-985.35"/>
    </edge>
    <edge id=":gneJ4_15" function="internal">
        <lane id=":gneJ4_15_0" index="0" speed="13.89" length="16.77" shape="995.24,-999.95 998.40,-997.57 1000.84,-992.48 1001.65,-985.35"/>
    </edge>
    <edge id=":gneJ47_0" function="internal">
        <lane id=":gneJ47_0_0" index="0" speed="13.89" length="14.46" shape="1008.25,500.00 1004.12,506.19 1000.00,508.25 995.88,506.19 991.75,500.00"/>
        <lane id=":gneJ47_0_1" index="1" speed="13.89" length="14.46" shape="1004.95,500.00 1002.48,503.71 1000.00,504.95 997.52,503.71 995.05,500.00"/>
        <lane id=":gneJ47_0_2" index="2" speed="13.89" length="14.46" shape="1001.65,500.00 1000.83,501.24 1000.00,501.65 999.17,501.24 998.35,500.00"/>
    </edge>
    <edge id=":gneJ52_0" function="internal">
        <lane id=":gneJ52_0_0" index="0" speed="13.89" length="19.28" shape="1500.00,-11.55 1508.66,-5.78 1511.55,0.00 1508.66,5.78 1500.00,11.55"/>
        <lane id=":gneJ52_0_1" index="1" speed="13.89" length="19.28" shape="1500.00,-8.25 1506.19,-4.12 1508.25,0.00 1506.19,4.12 1500.00,8.25"/>
        <lane id=":gneJ52_0_2" index="2" speed="13.89" length="19.28" shape="1500.00,-4.95 1503.71,-2.48 1504.95,0.00 1503.71,2.48 1500.00,4.95"/>
        <lane id=":gneJ52_0_3" index="3" speed="13.89" length="19.28" shape="1500.00,-1.65 1501.24,-0.83 1501.65,0.00 1501.24,0.83 1500.00,1.65"/>
    </edge>
    <edge id=":gneJ54_0" function="internal">
        <lane id=":gneJ54_0_0" index="0" speed="13.89" length="19.28" shape="-500.00,-988.45 -508.66,-994.23 -511.55,-1000.00 -508.66,-1005.77 -500.00,-1011.55"/>
        <lane id=":gneJ54_0_1" index="1" speed="13.89" length="19.28" shape="-500.00,-991.75 -506.19,-995.88 -508.25,-1000.00 -506.19,-1004.12 -500.00,-1008.25"/>
        <lane id=":gneJ54_0_2" index="2" speed="13.89" length="19.28" shape="-500.00,-995.05 -503.71,-997.52 -504.95,-1000.00 -503.71,-1002.48 -500.00,-1004.95"/>
        <lane id=":gneJ54_0_3" index="3" speed="13.89" length="19.28" shape="-500.00,-998.35 -501.24,-999.17 -501.65,-1000.00 -501.24,-1000.83 -500.00,-1001.65"/>
    </edge>
    <edge id=":gneJ55_0" function="internal">
        <lane id=":gneJ55_0_0" index="0" speed="13.89" length="19.28" shape="-11.55,-1500.00 -5.78,-1508.66 0.00,-1511.55 5.78,-1508.66 11.55,-1500.00"/>
        <lane id=":gneJ55_0_1" index="1" speed="13.89" length="19.28" shape="-8.25,-1500.00 -4.12,-1506.19 0.00,-1508.25 4.12,-1506.19 8.25,-1500.00"/>
        <lane id=":gneJ55_0_2" index="2" speed="13.89" length="19.28" shape="-4.95,-1500.00 -2.48,-1503.71 0.00,-1504.95 2.48,-1503.71 4.95,-1500.00"/>
        <lane id=":gneJ55_0_3" index="3" speed="13.89" length="19.28" shape="-1.65,-1500.00 -0.83,-1501.24 0.00,-1501.65 0.83,-1501.24 1.65,-1500.00"/>
    </edge>
    <edge id=":gneJ58_0" function="internal">
        <lane id=":gneJ58_0_0" index="0" speed="13.89" length="19.28" shape="1500.00,-1011.55 1508.66,-1005.77 1511.55,-1000.00 1508.66,-994.23 1500.00,-988.45"/>
        <lane id=":gneJ58_0_1" index="1" speed="13.89" length="19.28" shape="1500.00,-1008.25 1506.19,-1004.12 1508.25,-1000.00 1506.19,-995.88 1500.00,-991.75"/>
        <lane id=":gneJ58_0_2" index="2" speed="13.89" length="19.28" shape="1500.00,-1004.95 1503.71,-1002.48 1504.95,-1000.00 1503.71,-997.52 1500.00,-995.05"/>
        <lane id=":gneJ58_0_3" index="3" speed="13.89" length="19.28" shape="1500.00,-1001.65 1501.24,-1000.83 1501.65,-1000.00 1501.24,-999.17 1500.00,-998.35"/>
    </edge>

    <edge id="10o" from="gneJ2" to="gneJ52" priority="1">
        <lane id="10o_0" index="0" speed="13.89" length="488.65" shape="1011.35,-11.55 1500.00,-11.55"/>
        <lane id="10o_1" index="1" speed="13.89" length="488.65" shape="1011.35,-8.25 1500.00,-8.25"/>
        <lane id="10o_2" index="2" speed="13.89" length="488.65" shape="1011.35,-4.95 1500.00,-4.95"/>
        <lane id="10o_3" index="3" speed="13.89" length="488.65" shape="1011.35,-1.65 1500.00,-1.65"/>
    </edge>
    <edge id="10si" from="gneJ52" to="gneJ2" priority="1">
        <lane id="10si_0" index="0" speed="13.89" length="488.65" shape="1500.00,11.55 1011.35,11.55"/>
        <lane id="10si_1" index="1" speed="13.89" length="488.65" shape="1500.00,8.25 1011.35,8.25"/>
        <lane id="10si_2" index="2" speed="13.89" length="488.65" shape="1500.00,4.95 1011.35,4.95"/>
        <lane id="10si_3" index="3" speed="13.89" length="488.65" shape="1500.00,1.65 1011.35,1.65"/>
    </edge>
    <edge id="11o" from="gneJ2" to="gneJ47" priority="1">
        <lane id="11o_0" index="0" speed="13.89" length="485.35" shape="1008.25,14.65 1008.25,500.00"/>
        <lane id="11o_1" index="1" speed="13.89" length="485.35" shape="1004.95,14.65 1004.95,500.00"/>
        <lane id="11o_2" index="2" speed="13.89" length="485.35" shape="1001.65,14.65 1001.65,500.00"/>
    </edge>
    <edge id="11si" from="gneJ47" to="gneJ2" priority="1">
        <lane id="11si_0" index="0" speed="13.89" length="485.35" shape="991.75,500.00 991.75,14.65"/>
        <lane id="11si_1" index="1" speed="13.89" length="485.35" shape="995.05,500.00 995.05,14.65"/>
        <lane id="11si_2" index="2" speed="13.89" length="485.35" shape="998.35,500.00 998.35,14.65"/>
    </edge>
    <edge id="1o" from="gneJ1" to="gneJ19" priority="1">
        <lane id="1o_0" index="0" speed="13.89" length="485.35" shape="-14.65,11.55 -500.00,11.55"/>
        <lane id="1o_1" index="1" speed="13.89" length="485.35" shape="-14.65,8.25 -500.00,8.25"/>
        <lane id="1o_2" index="2" speed="13.89" length="485.35" shape="-14.65,4.95 -500.00,4.95"/>
        <lane id="1o_3" index="3" speed="13.89" length="485.35" shape="-14.65,1.65 -500.00,1.65"/>
    </edge>
    <edge id="1si" from="gneJ19" to="gneJ1" priority="1">
        <lane id="1si_0" index="0" speed="13.89" length="485.35" shape="-500.00,-11.55 -14.65,-11.55"/>
        <lane id="1si_1" index="1" speed="13.89" length="485.35" shape="-500.00,-8.25 -14.65,-8.25"/>
        <lane id="1si_2" index="2" speed="13.89" length="485.35" shape="-500.00,-4.95 -14.65,-4.95"/>
        <lane id="1si_3" index="3" speed="13.89" length="485.35" shape="-500.00,-1.65 -14.65,-1.65"/>
    </edge>
    <edge id="2o" from="gneJ1" to="gneJ2" priority="1">
        <lane id="2o_0" index="0" speed="13.89" length="974.00" shape="14.65,-11.55 988.65,-11.55"/>
        <lane id="2o_1" index="1" speed="13.89" length="974.00" shape="14.65,-8.25 988.65,-8.25"/>
        <lane id="2o_2" index="2" speed="13.89" length="974.00" shape="14.65,-4.95 988.65,-4.95"/>
        <lane id="2o_3" index="3" speed="13.89" length="974.00" shape="14.65,-1.65 988.65,-1.65"/>
    </edge>
    <edge id="2si" from="gneJ2" to="gneJ1" priority="1">
        <lane id="2si_0" index="0" speed="13.89" length="974.00" shape="988.65,11.55 14.65,11.55"/>
        <lane id="2si_1" index="1" speed="13.89" length="974.00" shape="988.65,8.25 14.65,8.25"/>
        <lane id="2si_2" index="2" speed="13.89" length="974.00" shape="988.65,4.95 14.65,4.95"/>
        <lane id="2si_3" index="3" speed="13.89" length="974.00" shape="988.65,1.65 14.65,1.65"/>
    </edge>
    <edge id="3o" from="gneJ1" to="gneJ3" priority="1">
        <lane id="3o_0" index="0" speed="13.89" length="970.70" shape="-11.55,-14.65 -11.55,-985.35"/>
        <lane id="3o_1" index="1" speed="13.89" length="970.70" shape="-8.25,-14.65 -8.25,-985.35"/>
        <lane id="3o_2" index="2" speed="13.89" length="970.70" shape="-4.95,-14.65 -4.95,-985.35"/>
        <lane id="3o_3" index="3" speed="13.89" length="970.70" shape="-1.65,-14.65 -1.65,-985.35"/>
    </edge>
    <edge id="3si" from="gneJ3" to="gneJ1" priority="1">
        <lane id="3si_0" index="0" speed="13.89" length="970.70" shape="11.55,-985.35 11.55,-14.65"/>
        <lane id="3si_1" index="1" speed="13.89" length="970.70" shape="8.25,-985.35 8.25,-14.65"/>
        <lane id="3si_2" index="2" speed="13.89" length="970.70" shape="4.95,-985.35 4.95,-14.65"/>
        <lane id="3si_3" index="3" speed="13.89" length="970.70" shape="1.65,-985.35 1.65,-14.65"/>
    </edge>
    <edge id="4o" from="gneJ1" to="gneJ18" priority="1">
        <lane id="4o_0" index="0" speed="13.89" length="485.35" shape="11.55,14.65 11.55,500.00"/>
        <lane id="4o_1" index="1" speed="13.89" length="485.35" shape="8.25,14.65 8.25,500.00"/>
        <lane id="4o_2" index="2" speed="13.89" length="485.35" shape="4.95,14.65 4.95,500.00"/>
        <lane id="4o_3" index="3" speed="13.89" length="485.35" shape="1.65,14.65 1.65,500.00"/>
    </edge>
    <edge id="4si" from="gneJ18" to="gneJ1" priority="1">
        <lane id="4si_0" index="0" speed="13.89" length="485.35" shape="-11.55,500.00 -11.55,14.65"/>
        <lane id="4si_1" index="1" speed="13.89" length="485.35" shape="-8.25,500.00 -8.25,14.65"/>
        <lane id="4si_2" index="2" speed="13.89" length="485.35" shape="-4.95,500.00 -4.95,14.65"/>
        <lane id="4si_3" index="3" speed="13.89" length="485.35" shape="-1.65,500.00 -1.65,14.65"/>
    </edge>
    <edge id="5o" from="gneJ3" to="gneJ54" priority="1">
        <lane id="5o_0" index="0" speed="13.89" length="485.35" shape="-14.65,-988.45 -500.00,-988.45"/>
        <lane id="5o_1" index="1" speed="13.89" length="485.35" shape="-14.65,-991.75 -500.00,-991.75"/>
        <lane id="5o_2" index="2" speed="13.89" length="485.35" shape="-14.65,-995.05 -500.00,-995.05"/>
        <lane id="5o_3" index="3" speed="13.89" length="485.35" shape="-14.65,-998.35 -500.00,-998.35"/>
    </edge>
    <edge id="5si" from="gneJ54" to="gneJ3" priority="1">
        <lane id="5si_0" index="0" speed="13.89" length="485.35" shape="-500.00,-1011.55 -14.65,-1011.55"/>
        <lane id="5si_1" index="1" speed="13.89" length="485.35" shape="-500.00,-1008.25 -14.65,-1008.25"/>
        <lane id="5si_2" index="2" speed="13.89" length="485.35" shape="-500.00,-1004.95 -14.65,-1004.95"/>
        <lane id="5si_3" index="3" speed="13.89" length="485.35" shape="-500.00,-1001.65 -14.65,-1001.65"/>
    </edge>
    <edge id="6o" from="gneJ3" to="gneJ55" priority="1">
        <lane id="6o_0" index="0" speed="13.89" length="485.35" shape="-11.55,-1014.65 -11.55,-1500.00"/>
        <lane id="6o_1" index="1" speed="13.89" length="485.35" shape="-8.25,-1014.65 -8.25,-1500.00"/>
        <lane id="6o_2" index="2" speed="13.89" length="485.35" shape="-4.95,-1014.65 -4.95,-1500.00"/>
        <lane id="6o_3" index="3" speed="13.89" length="485.35" shape="-1.65,-1014.65 -1.65,-1500.00"/>
    </edge>
    <edge id="6si" from="gneJ55" to="gneJ3" priority="1">
        <lane id="6si_0" index="0" speed="13.89" length="485.35" shape="11.55,-1500.00 11.55,-1014.65"/>
        <lane id="6si_1" index="1" speed="13.89" length="485.35" shape="8.25,-1500.00 8.25,-1014.65"/>
        <lane id="6si_2" index="2" speed="13.89" length="485.35" shape="4.95,-1500.00 4.95,-1014.65"/>
        <lane id="6si_3" index="3" speed="13.89" length="485.35" shape="1.65,-1500.00 1.65,-1014.65"/>
    </edge>
    <edge id="7o" from="gneJ3" to="gneJ4" priority="1">
        <lane id="7o_0" index="0" speed="13.89" length="974.00" shape="14.65,-1011.55 988.65,-1011.55"/>
        <lane id="7o_1" index="1" speed="13.89" length="974.00" shape="14.65,-1008.25 988.65,-1008.25"/>
        <lane id="7o_2" index="2" speed="13.89" length="974.00" shape="14.65,-1004.95 988.65,-1004.95"/>
        <lane id="7o_3" index="3" speed="13.89" length="974.00" shape="14.65,-1001.65 988.65,-1001.65"/>
    </edge>
    <edge id="7si" from="gneJ4" to="gneJ3" priority="1">
        <lane id="7si_0" index="0" speed="13.89" length="974.00" shape="988.65,-988.45 14.65,-988.45"/>
        <lane id="7si_1" index="1" speed="13.89" length="974.00" shape="988.65,-991.75 14.65,-991.75"/>
        <lane id="7si_2" index="2" speed="13.89" length="974.00" shape="988.65,-995.05 14.65,-995.05"/>
        <lane id="7si_3" index="3" speed="13.89" length="974.00" shape="988.65,-998.35 14.65,-998.35"/>
    </edge>
    <edge id="8o" from="gneJ4" to="gneJ58" priority="1">
        <lane id="8o_0" index="0" speed="13.89" length="488.65" shape="1011.35,-1011.55 1500.00,-1011.55"/>
        <lane id="8o_1" index="1" speed="13.89" length="488.65" shape="1011.35,-1008.25 1500.00,-1008.25"/>
        <lane id="8o_2" index="2" speed="13.89" length="488.65" shape="1011.35,-1004.95 1500.00,-1004.95"/>
        <lane id="8o_3" index="3" speed="13.89" length="488.65" shape="1011.35,-1001.65 1500.00,-1001.65"/>
    </edge>
    <edge id="8si" from="gneJ58" to="gneJ4" priority="1">
        <lane id="8si_0" index="0" speed="13.89" length="488.65" shape="1500.00,-988.45 1011.35,-988.45"/>
        <lane id="8si_1" index="1" speed="13.89" length="488.65" shape="1500.00,-991.75 1011.35,-991.75"/>