<?xml version="1.0" encoding="UTF-8"?>

<!-- generated on Thu Jun 13 19:49:33 2019 by Netedit Version 0.32.0
<?xml version="1.0" encoding="UTF-8"?>

<configuration xmlns:xsi="http://www.w3.org/2001/XMLSchema-instance" xsi:noNamespaceSchemaLocation="http://sumo.dlr.de/xsd/netconvertConfiguration.xsd">

    <input>
        <sumo-net-file value="/Users/ammarhaydari/Rl_Files/TSCs/mysumo/mixed_net.net.xml"/>
    </input>

    <output>
        <output-file value="/Users/ammarhaydari/Rl_Files/TSCs/mysumo/mixed_net.net.xml"/>
    </output>

    <processing>
        <no-turnarounds value="true"/>
        <offset.disable-normalization value="true"/>
        <lefthand value="false"/>
        <junctions.corner-detail value="0"/>
        <rectangular-lane-cut value="false"/>
        <walkingareas value="false"/>
    </processing>

</configuration>
-->

<net version="0.27" xmlns:xsi="http://www.w3.org/2001/XMLSchema-instance" xsi:noNamespaceSchemaLocation="http://sumo.dlr.de/xsd/net_file.xsd">

    <location netOffset="0.00,0.00" convBoundary="-500.00,-1500.00,1500.00,500.00" origBoundary="-10000000000.00,-10000000000.00,10000000000.00,10000000000.00" projParameter="!"/>

    <edge id=":gneJ1_0" function="internal">
        <lane id=":gneJ1_0_0" index="0" speed="13.89" length="5.00" shape="-11.55,14.65 -11.74,13.29 -12.32,12.33 -13.29,11.74 -14.65,11.55"/>
    </edge>
    <edge id=":gneJ1_1" function="internal">
        <lane id=":gneJ1_1_0" index="0" speed="13.89" length="29.30" shape="-11.55,14.65 -11.55,-14.65"/>
        <lane id=":gneJ1_1_1" index="1" speed="13.89" length="29.30" shape="-8.25,14.65 -8.25,-14.65"/>
        <lane id=":gneJ1_1_2" index="2" speed="13.89" length="29.30" shape="-4.95,14.65 -4.95,-14.65"/>
        <lane id=":gneJ1_1_3" index="3" speed="13.89" length="29.30" shape="-1.65,14.65 -1.65,-14.65"/>
    </edge>
    <edge id=":gneJ1_5" function="internal">
        <lane id=":gneJ1_5_0" index="0" speed="13.89" length="8.53" shape="-1.65,14.65 -0.63,7.52 0.05,6.38"/>
    </edge>
    <edge id=":gneJ1_25" function="internal">
        <lane id=":gneJ1_25_0" index="0" speed="13.89" length="17.76" shape="0.05,6.38 2.43,2.43 7.52,-0.63 14.65,-1.65"/>
    </edge>
    <edge id=":gneJ1_6" function="internal">
        <lane id=":gneJ1_6_0" index="0" speed="13.89" length="5.00" shape="14.65,11.55 13.29,11.74 12.32,12.32 11.74,13.29 11.55,14.65"/>
    </edge>
    <edge id=":gneJ1_7" function="internal">
        <lane id=":gneJ1_7_0" index="0" speed="13.89" length="29.30" shape="14.65,11.55 -14.65,11.55"/>
        <lane id=":gneJ1_7_1" index="1" speed="13.89" length="29.30" shape="14.65,8.25 -14.65,8.25"/>
        <lane id=":gneJ1_7_2" index="2" speed="13.89" length="29.30" shape="14.65,4.95 -14.65,4.95"/>
        <lane id=":gneJ1_7_3" index="3" speed="13.89" length="29.30" shape="14.65,1.65 -14.65,1.65"/>
    </edge>
    <edge id=":gneJ1_11" function="internal">
        <lane id=":gneJ1_11_0" index="0" speed="13.89" length="8.53" shape="14.65,1.65 7.52,0.63 6.38,-0.05"/>
    </edge>
    <edge id=":gneJ1_26" function="internal">
        <lane id=":gneJ1_26_0" index="0" speed="13.89" length="17.76" shape="6.38,-0.05 2.42,-2.43 -0.63,-7.52 -1.65,-14.65"/>
    </edge>
    <edge id=":gneJ1_12" function="internal">
        <lane id=":gneJ1_12_0" index="0" speed="13.89" length="5.00" shape="11.55,-14.65 11.74,-13.29 12.33,-12.32 13.29,-11.74 14.65,-11.55"/>
    </edge>
    <edge id=":gneJ1_13" function="internal">
        <lane id=":gneJ1_13_0" index="0" speed="13.89" length="29.30" shape="11.55,-14.65 11.55,14.65"/>
        <lane id=":gneJ1_13_1" index="1" speed="13.89" length="29.30" shape="8.25,-14.65 8.25,14.65"/>
        <lane id=":gneJ1_13_2" index="2" speed="13.89" length="29.30" shape="4.95,-14.65 4.95,14.65"/>
        <lane id=":gneJ1_13_3" index="3" speed="13.89" length="29.30" shape="1.65,-14.65 1.65,14.65"/>
    </edge>
    <edge id=":gneJ1_17" function="internal">
        <lane id=":gneJ1_17_0" index="0" speed="13.89" length="8.53" shape="1.65,-14.65 0.63,-7.52 -0.05,-6.38"/>
    </edge>
    <edge id=":gneJ1_27" function="internal">
        <lane id=":gneJ1_27_0" index="0" speed="13.89" length="17.76" shape="-0.05,-6.38 -2.42,-2.43 -7.52,0.63 -14.65,1.65"/>
    </edge>
    <edge id=":gneJ1_18" function="internal">
        <lane id=":gneJ1_18_0" index="0" speed="13.89" length="5.00" shape="-14.65,-11.55 -13.29,-11.74 -12.33,-12.33 -11.74,-13.29 -11.55,-14.65"/>
    </edge>
    <edge id=":gneJ1_19" function="internal">
        <lane id=":gneJ1_19_0" index="0" speed="13.89" length="29.30" shape="-14.65,-11.55 14.65,-11.55"/>
        <lane id=":gneJ1_19_1" index="1" speed="13.89" length="29.30" shape="-14.65,-8.25 14.65,-8.25"/>
        <lane id=":gneJ1_19_2" index="2" speed="13.89" length="29.30" shape="-14.65,-4.95 14.65,-4.95"/>
        <lane id=":gneJ1_19_3" index="3" speed="13.89" length="29.30" shape="-14.65,-1.65 14.65,-1.65"/>
    </edge>
    <edge id=":gneJ1_23" function="internal">
        <lane id=":gneJ1_23_0" index="0" speed="13.89" length="8.53" shape="-14.65,-1.65 -7.52,-0.63 -6.38,0.05"/>
    </edge>
    <edge id=":gneJ1_24" function="internal">
        <lane id=":gneJ1_24_0" index="0" speed="13.89" length="2.41" shape="-14.65,-1.65 -13.41,-0.83 -13.00,0.00"/>
    </edge>
    <edge id=":gneJ1_28" function="internal">
        <lane id=":gneJ1_28_0" index="0" speed="13.89" length="17.76" shape="-6.38,0.05 -2.43,2.42 0.63,7.52 1.65,14.65"/>
    </edge>
    <edge id=":gneJ1_29" function="internal">
        <lane id=":gneJ1_29_0" index="0" speed="13.89" length="2.41" shape="-13.00,0.00 -13.41,0.83 -14.65,1.65"/>
    </edge>
    <edge id=":gneJ18_0" function="internal">
        <lane id=":gneJ18_0_0" index="0" speed="13.89" length="17.90" shape="11.55,500.00 5.78,508.66 0.00,511.55 -5.78,508.66 -11.55,500.00"/>
        <lane id=":gneJ18_0_1" index="1" speed="13.89" length="17.90" shape="8.25,500.00 4.12,506.19 0.00,508.25 -4.12,506.19 -8.25,500.00"/>
        <lane id=":gneJ18_0_2" index="2" speed="13.89" length="17.90" shape="8.25,500.00 4.95,504.95 1.65,506.60 -1.65,504.95 -4.95,500.00"/>
        <lane id=":gneJ18_0_3" index="3" speed="13.89" length="17.90" shape="4.95,500.00 1.65,504.95 -1.65,506.60 -4.95,504.95 -8.25,500.00"/>
        <lane id=":gneJ18_0_4" index="4" speed="13.89" length="17.90" shape="4.95,500.00 2.48,503.71 0.00,504.95 -2.48,503.71 -4.95,500.00"/>
        <lane id=":gneJ18_0_5" index="5" speed="13.89" length="17.90" shape="1.65,500.00 0.00,502.48 -1.65,503.30 -3.30,502.48 -4.95,500.00"/>
        <lane id=":gneJ18_0_6" index="6" speed="13.89" length="17.90" shape="1.65,500.00 0.83,501.24 0.00,501.65 -0.83,501.24 -1.65,500.00"/>
    </edge>
    <edge id=":gneJ19_0" function="internal">
        <lane id=":gneJ19_0_0" index="0" speed="13.89" length="19.28" shape="-500.00,11.55 -508.66,5.78 -511.55,0.00 -508.66,-5.78 -500.00,-11.55"/>
        <lane id=":gneJ19_0_1" index="1" speed="13.89" length="19.28" shape="-500.00,8.25 -506.19,4.12 -508.25,0.00 -506.19,-4.12 -500.00,-8.25"/>
        <lane id=":gneJ19_0_2" index="2" speed="13.89" length="19.28" shape="-500.00,4.95 -503.71,2.48 -504.95,0.00 -503.71,-2.48 -500.00,-4.95"/>
        <lane id=":gneJ19_0_3" index="3" speed="13.89" length="19.28" shape="-500.00,1.65 -501.24,0.83 -501.65,0.00 -501.24,-0.83 -500.00,-1.65"/>
    </edge>
    <edge id=":gneJ2_0" function="internal">
        <lane id=":gneJ2_0_0" index="0" speed="13.89" length="16.55" shape="991.75,14.65 990.77,13.29 987.83,12.33 982.94,11.74 976.09,11.55"/>
    </edge>
    <edge id=":gneJ2_1" function="internal">
        <lane id=":gneJ2_1_0" index="0" speed="13.89" length="33.99" shape="991.75,14.65 990.87,6.81 988.23,-0.80 983.82,-8.18 977.66,-15.34"/>
    </edge>
    <edge id=":gneJ2_2" function="internal">
        <lane id=":gneJ2_2_0" index="0" speed="13.89" length="35.26" shape="995.05,14.65 995.05,-20.61"/>
        <lane id=":gneJ2_2_1" index="1" speed="13.89" length="35.26" shape="998.35,14.65 998.35,-20.61"/>
    </edge>
    <edge id=":gneJ2_4" function="internal">
        <lane id=":gneJ2_4_0" index="0" speed="13.89" length="15.01" shape="998.35,14.65 999.16,7.52 1001.60,2.42 1003.35,1.11"/>
    </edge>
    <edge id=":gneJ2_27" function="internal">
        <lane id=":gneJ2_27_0" index="0" speed="13.89" length="8.67" shape="1003.35,1.11 1005.66,-0.63 1011.35,-1.65"/>
    </edge>
    <edge id=":gneJ2_5" function="internal">
        <lane id=":gneJ2_5_0" index="0" speed="13.89" length="5.00" shape="1011.35,11.55 1009.99,11.74 1009.02,12.32 1008.44,13.29 1008.25,14.65"/>
    </edge>
    <edge id=":gneJ2_6" function="internal">
        <lane id=":gneJ2_6_0" index="0" speed="13.89" length="35.26" shape="1011.35,11.55 976.09,11.55"/>
        <lane id=":gneJ2_6_1" index="1" speed="13.89" length="35.26" shape="1011.35,8.25 976.09,8.25"/>
        <lane id=":gneJ2_6_2" index="2" speed="13.89" length="35.26" shape="1011.35,4.95 976.09,4.95"/>
    </edge>
    <edge id=":gneJ2_9" function="internal">
        <lane id=":gneJ2_9_0" index="0" speed="13.89" length="15.92" shape="1011.35,4.95 1004.22,3.68 996.38,-0.05"/>
    </edge>
    <edge id=":gneJ2_10" function="internal">
        <lane id=":gneJ2_10_0" index="0" speed="13.89" length="7.70" shape="1011.35,1.65 1004.88,0.44 1003.87,-0.05"/>
    </edge>
    <edge id=":gneJ2_11" function="internal">
        <lane id=":gneJ2_11_0" index="0" speed="13.89" length="6.29" shape="1011.35,1.65 1005.66,0.26 1005.36,-0.05"/>
    </edge>
    <edge id=":gneJ2_28" function="internal">
        <lane id=":gneJ2_28_0" index="0" speed="13.89" length="24.22" shape="996.38,-0.05 996.23,-0.12 987.37,-6.46 977.66,-15.34"/>
    </edge>
    <edge id=":gneJ2_29" function="internal">
        <lane id=":gneJ2_29_0" index="0" speed="13.89" length="29.87" shape="1003.87,-0.05 997.49,-3.18 989.20,-9.22 979.99,-17.68"/>
    </edge>
    <edge id=":gneJ2_30" function="internal">
        <lane id=":gneJ2_30_0" index="0" speed="13.89" length="22.54" shape="1005.36,-0.05 1001.60,-3.92 999.16,-10.87 998.35,-20.61"/>
    </edge>
    <edge id=":gneJ2_12" function="internal">
        <lane id=":gneJ2_12_0" index="0" speed="13.89" length="10.29" shape="1008.25,-20.61 1008.44,-16.65 1009.02,-13.82 1009.99,-12.12 1011.35,-11.55"/>
    </edge>
    <edge id=":gneJ2_13" function="internal">
        <lane id=":gneJ2_13_0" index="0" speed="13.89" length="35.26" shape="1008.25,-20.61 1008.25,14.65"/>
        <lane id=":gneJ2_13_1" index="1" speed="13.89" length="35.26" shape="1004.95,-20.61 1004.95,14.65"/>
    </edge>
    <edge id=":gneJ2_15" function="internal">
        <lane id=":gneJ2_15_0" index="0" speed="13.89" length="11.50" shape="1001.65,-20.61 1000.05,-9.43 999.95,-9.26"/>
    </edge>
    <edge id=":gneJ2_31" function="internal">
        <lane id=":gneJ2_31_0" index="0" speed="13.89" length="29.73" shape="999.95,-9.26 995.26,-1.44 987.27,3.35 976.09,4.95"/>
    </edge>
    <edge id=":gneJ2_16" function="internal">
        <lane id=":gneJ2_16_0" index="0" speed="13.89" length="10.01" shape="984.66,-22.34 987.76,-19.57 989.98,-18.36 991.31,-18.71 991.75,-20.61"/>
    </edge>
    <edge id=":gneJ2_17" function="internal">
        <lane id=":gneJ2_17_0" index="0" speed="13.89" length="30.91" shape="984.66,-22.34 991.61,-16.18 998.38,-11.77 1004.96,-9.13 1011.35,-8.25"/>
    </edge>
    <edge id=":gneJ2_18" function="internal">
        <lane id=":gneJ2_18_0" index="0" speed="13.89" length="42.13" shape="982.32,-20.01 992.22,-9.36 999.29,-0.03 1003.54,7.97 1004.95,14.65"/>
    </edge>
    <edge id=":gneJ2_19" function="internal">
        <lane id=":gneJ2_19_0" index="0" speed="13.89" length="36.28" shape="982.32,-20.01 990.06,-10.53 991.59,-3.76 986.94,0.30 976.09,1.65"/>
    </edge>
    <edge id=":gneJ2_20" function="internal">
        <lane id=":gneJ2_20_0" index="0" speed="13.89" length="6.64" shape="976.09,-11.55 978.20,-11.79 979.16,-12.50 978.98,-13.68 977.66,-15.34"/>
    </edge>
    <edge id=":gneJ2_21" function="internal">
        <lane id=":gneJ2_21_0" index="0" speed="13.89" length="23.16" shape="976.09,-11.55 984.38,-12.12 990.31,-13.82 993.86,-16.65 995.05,-20.61"/>
    </edge>
    <edge id=":gneJ2_22" function="internal">
        <lane id=":gneJ2_22_0" index="0" speed="13.89" length="35.26" shape="976.09,-11.55 1011.35,-11.55"/>
        <lane id=":gneJ2_22_1" index="1" speed="13.89" length="35.26" shape="976.09,-8.25 1011.35,-8.25"/>
        <lane id=":gneJ2_22_2" index="2" speed="13.89" length="35.26" shape="976.09,-4.95 1011.35,-4.95"/>
        <lane id=":gneJ2_22_3" index="3" speed="13.89" length="35.26" shape="976.09,-1.65 1011.35,-1.65"/>
    </edge>
    <edge id=":gneJ2_26" function="internal">
        <lane id=":gneJ2_26_0" index="0" speed="13.89" length="21.05" shape="976.09,-1.65 987.27,-0.63 995.26,2.42 996.13,3.35"/>
    </edge>
    <edge id=":gneJ2_32" function="internal">
        <lane id=":gneJ2_32_0" index="0" speed="13.89" length="13.03" shape="996.13,3.35 1000.05,7.52 1001.65,14.65"/>
    </edge>
    <edge id=":gneJ3_0" function="internal">
        <lane id=":gneJ3_0_0" index="0" speed="13.89" length="13.39" shape="-11.55,-976.09 -11.74,-981.50 -12.32,-985.36 -13.29,-987.68 -14.65,-988.45"/>
    </edge>
    <edge id=":gneJ3_1" function="internal">
        <lane id=":gneJ3_1_0" index="0" speed="13.89" length="38.56" shape="-11.55,-976.09 -11.55,-1014.65"/>
        <lane id=":gneJ3_1_1" index="1" speed="13.89" length="38.56" shape="-8.25,-976.09 -8.25,-1014.65"/>
        <lane id=":gneJ3_1_2" index="2" speed="13.89" length="38.56" shape="-4.95,-976.09 -4.95,-1014.65"/>
    </edge>
    <edge id=":gneJ3_4" function="internal">
        <lane id=":gneJ3_4_0" index="0" speed="13.89" length="18.97" shape="-4.95,-976.09 -3.15,-988.71 0.05,-994.04"/>
    </edge>
    <edge id=":gneJ3_5" function="internal">
        <lane id=":gneJ3_5_0" index="0" speed="13.89" length="11.50" shape="-1.65,-976.09 -0.05,-987.27 0.05,-987.44"/>
    </edge>
    <edge id=":gneJ3_6" function="internal">
        <lane id=":gneJ3_6_0" index="0" speed="13.89" length="11.46" shape="-1.65,-976.09 -0.30,-986.94 0.05,-987.34"/>
    </edge>
    <edge id=":gneJ3_30" function="internal">
        <lane id=":gneJ3_30_0" index="0" speed="13.89" length="27.58" shape="0.05,-994.04 2.27,-997.73 11.29,-1003.15 23.91,-1004.95"/>
    </edge>
    <edge id=":gneJ3_31" function="internal">
        <lane id=":gneJ3_31_0" index="0" speed="13.89" length="29.73" shape="0.05,-987.44 4.74,-995.26 12.73,-1000.05 23.91,-1001.65"/>
    </edge>
    <edge id=":gneJ3_32" function="internal">
        <lane id=":gneJ3_32_0" index="0" speed="13.89" length="24.82" shape="0.05,-987.34 3.76,-991.59 10.53,-990.06 20.01,-982.32"/>
    </edge>
    <edge id=":gneJ3_7" function="internal">
        <lane id=":gneJ3_7_0" index="0" speed="13.89" length="6.64" shape="15.34,-977.66 13.68,-978.98 12.50,-979.16 11.79,-978.20 11.55,-976.09"/>
    </edge>
    <edge id=":gneJ3_8" function="internal">
        <lane id=":gneJ3_8_0" index="0" speed="13.89" length="33.99" shape="15.34,-977.66 8.18,-983.82 0.80,-988.23 -6.81,-990.87 -14.65,-991.75"/>
    </edge>
    <edge id=":gneJ3_9" function="internal">
        <lane id=":gneJ3_9_0" index="0" speed="13.89" length="40.59" shape="17.68,-979.99 9.22,-989.40 3.18,-998.32 -0.44,-1006.73 -1.65,-1014.65"/>
    </edge>
    <edge id=":gneJ3_10" function="internal">
        <lane id=":gneJ3_10_0" index="0" speed="13.89" length="36.28" shape="17.68,-979.99 9.94,-989.47 8.41,-996.24 13.06,-1000.30 23.91,-1001.65"/>
    </edge>
    <edge id=":gneJ3_11" function="internal">
        <lane id=":gneJ3_11_0" index="0" speed="13.89" length="22.66" shape="23.91,-988.45 17.06,-987.68 12.17,-985.36 9.23,-981.50 8.25,-976.09"/>
    </edge>
    <edge id=":gneJ3_12" function="internal">
        <lane id=":gneJ3_12_0" index="0" speed="13.89" length="38.56" shape="23.91,-991.75 -14.65,-991.75"/>
        <lane id=":gneJ3_12_1" index="1" speed="13.89" length="38.56" shape="23.91,-995.05 -14.65,-995.05"/>
        <lane id=":gneJ3_12_2" index="2" speed="13.89" length="38.56" shape="23.91,-998.35 -14.65,-998.35"/>
    </edge>
    <edge id=":gneJ3_15" function="internal">
        <lane id=":gneJ3_15_0" index="0" speed="13.89" length="21.05" shape="23.91,-998.35 12.73,-999.37 4.74,-1002.43 3.87,-1003.35"/>
    </edge>
    <edge id=":gneJ3_33" function="internal">
        <lane id=":gneJ3_33_0" index="0" speed="13.89" length="13.03" shape="3.87,-1003.35 -0.05,-1007.52 -1.65,-1014.65"/>
    </edge>
    <edge id=":gneJ3_16" function="internal">
        <lane id=":gneJ3_16_0" index="0" speed="13.89" length="13.39" shape="11.55,-1014.65 12.32,-1013.29 14.64,-1012.33 18.50,-1011.74 23.91,-1011.55"/>
    </edge>
    <edge id=":gneJ3_17" function="internal">
        <lane id=":gneJ3_17_0" index="0" speed="13.89" length="32.69" shape="11.55,-1014.65 12.22,-1005.58 14.25,-997.55 17.62,-990.58 22.34,-984.66"/>
    </edge>
    <edge id=":gneJ3_18" function="internal">
        <lane id=":gneJ3_18_0" index="0" speed="13.89" length="38.56" shape="11.55,-1014.65 11.55,-976.09"/>
        <lane id=":gneJ3_18_1" index="1" speed="13.89" length="38.56" shape="8.25,-1014.65 8.25,-976.09"/>
        <lane id=":gneJ3_18_2" index="2" speed="13.89" length="38.56" shape="4.95,-1014.65 4.95,-976.09"/>
        <lane id=":gneJ3_18_3" index="3" speed="13.89" length="38.56" shape="1.65,-1014.65 1.65,-976.09"/>
    </edge>
    <edge id=":gneJ3_22" function="internal">
        <lane id=":gneJ3_22_0" index="0" speed="13.89" length="14.22" shape="1.65,-1014.65 0.63,-1007.52 -2.42,-1002.42 -3.35,-1001.87"/>
    </edge>
    <edge id=":gneJ3_34" function="internal">
        <lane id=":gneJ3_34_0" index="0" speed="13.89" length="12.07" shape="-3.35,-1001.87 -7.52,-999.37 -14.65,-998.35"/>
    </edge>
    <edge id=":gneJ3_23" function="internal">
        <lane id=":gneJ3_23_0" index="0" speed="13.89" length="5.00" shape="-14.65,-1011.55 -13.29,-1011.74 -12.33,-1012.32 -11.74,-1013.29 -11.55,-1014.65"/>
    </edge>
    <edge id=":gneJ3_24" function="internal">
        <lane id=":gneJ3_24_0" index="0" speed="13.89" length="38.56" shape="-14.65,-1011.55 23.91,-1011.55"/>
        <lane id=":gneJ3_24_1" index="1" speed="13.89" length="38.56" shape="-14.65,-1008.25 23.91,-1008.25"/>
        <lane id=":gneJ3_24_2" index="2" speed="13.89" length="38.56" shape="-14.65,-1004.95 23.91,-1004.95"/>
    </edge>
    <edge id=":gneJ3_27" function="internal">
        <lane id=":gneJ3_27_0" index="0" speed="13.89" length="18.27" shape="-14.65,-1004.95 -6.08,-1003.68 2.78,-999.95"/>
    </edge>
    <edge id=":gneJ3_28" function="internal">
        <lane id=":gneJ3_28_0" index="0" speed="13.89" length="9.25" shape="-14.65,-1001.65 -6.73,-1000.44 -5.59,-999.95"/>
    </edge>
    <edge id=":gneJ3_29" function="internal">
        <lane id=":gneJ3_29_0" index="0" speed="13.89" length="7.46" shape="-14.65,-1001.65 -7.52,-1000.05 -7.41,-999.95"/>
    </edge>
    <edge id=":gneJ3_35" function="internal">
        <lane id=":gneJ3_35_0" index="0" speed="13.89" length="24.90" shape="2.78,-999.95 2.95,-999.88 12.42,-993.54 22.34,-984.66"/>
    </edge>
    <edge id=":gneJ3_36" function="internal">
        <lane id=":gneJ3_36_0" index="0" speed="13.89" length="31.34" shape="-5.59,-999.95 1.68,-996.82 10.60,-990.78 20.01,-982.32"/>
    </edge>
    <edge id=":gneJ3_37" function="internal">
        <lane id=":gneJ3_37_0" index="0" speed="13.89" length="26.63" shape="-7.41,-999.95 -2.43,-995.26 0.63,-987.27 1.65,-976.09"/>
    </edge>
    <edge id=":gneJ4_0" function="internal">
        <lane id=":gneJ4_0_0" index="0" speed="13.89" length="5.00" shape="991.75,-985.35 991.56,-986.71 990.98,-987.67 990.01,-988.26 988.65,-988.45"/>
    </edge>
    <edge id=":gneJ4_1" function="internal">
        <lane id=":gneJ4_1_0" index="0" speed="13.89" length="10.32" shape="995.05,-985.35 994.65,-988.15 993.45,-990.15 991.45,-991.35 988.65,-991.75"/>
    </edge>
    <edge id=":gneJ4_2" function="internal">
        <lane id=":gneJ4_2_0" index="0" speed="13.89" length="13.09" shape="995.05,-985.35 994.65,-989.59 993.45,-992.62 991.45,-994.44 988.65,-995.05"/>
    </edge>
    <edge id=":gneJ4_3" function="internal">
        <lane id=":gneJ4_3_0" index="0" speed="13.89" length="26.50" shape="998.35,-985.35 999.16,-993.93 1001.60,-1000.05 1005.66,-1003.73 1011.35,-1004.95"/>
    </edge>
    <edge id=":gneJ4_4" function="internal">
        <lane id=":gneJ4_4_0" index="0" speed="13.89" length="23.69" shape="998.35,-985.35 999.16,-992.48 1001.60,-997.58 1005.66,-1000.63 1011.35,-1001.65"/>
    </edge>
    <edge id=":gneJ4_5" function="internal">
        <lane id=":gneJ4_5_0" index="0" speed="13.89" length="5.00" shape="1011.35,-988.45 1009.99,-988.26 1009.02,-987.68 1008.44,-986.71 1008.25,-985.35"/>
    </edge>
    <edge id=":gneJ4_6" function="internal">
        <lane id=":gneJ4_6_0" index="0" speed="13.89" length="22.70" shape="1011.35,-991.75 988.65,-991.75"/>
        <lane id=":gneJ4_6_1" index="1" speed="13.89" length="22.70" shape="1011.35,-995.05 988.65,-995.05"/>
        <lane id=":gneJ4_6_2" index="2" speed="13.89" length="22.70" shape="1011.35,-998.35 988.65,-998.35"/>
    </edge>
    <edge id=":gneJ4_9" function="internal">
        <lane id=":gneJ4_9_0" index="0" speed="13.89" length="22.70" shape="988.65,-1011.55 1011.35,-1011.55"/>
        <lane id=":gneJ4_9_1" index="1" speed="13.89" length="22.70" shape="988.65,-1008.25 1011.35,-1008.25"/>
        <lane id=":gneJ4_9_2" index="2" speed="13.89" length="22.70" shape="988.65,-1004.95 1011.35,-1004.95"/>
    </edge>
    <edge id=":gneJ4_12" function="internal">
        <lane id=":gneJ4_12_0" index="0" speed="13.89" length="13.63" shape="988.65,-1004.95 995.78,-1003.73 1000.88,-1000.05 1000.92,-999.95"/>
    </edge>
    <edge id=":gneJ4_13" function="internal">
        <lane id=":gneJ4_13_0" index="0" speed="13.89" length="6.91" shape="988.65,-1001.65 994.34,-1000.63 995.24,-999.95"/>
    </edge>
    <edge id=":gneJ4_14" function="internal">
        <lane id=":gneJ4_14_0" index="0" speed="13.89" length="15.37" shape="1000.92,-999.95 1003.93,-993.92 1004.95,-985.35"/>
    </edge>
    <edge id=":gneJ4_15" function="internal">
        <lane id=":gneJ4_15_0" index="0" speed="13.89" length="16.77" shape="995.24,-999.95 998.40,-997.57 1000.84,-992.48 1001.65,-985.35"/>
    </edge>
    <edge id=":gneJ47_0" function="internal">
        <lane id=":gneJ47_0_0" index="0" speed="13.89" length="14.46" shape="1008.25,500.00 1004.12,506.19 1000.00,508.25 995.88,506.19 991.75,500.00"/>
        <lane id=":gneJ47_0_1" index="1" speed="13.89" length="14.46" shape="1004.95,500.00 1002.48,503.71 1000.00,504.95 997.52,503.71 995.05,500.00"/>
        <lane id=":gneJ47_0_2" index="2" speed="13.89" length="14.46" shape="1001.65,500.00 1000.83,501.24 1000.00,501.65 999.17,501.24 998.35,500.00"/>
    </edge>
    <edge id=":gneJ52_0" function="internal">
        <lane id=":gneJ52_0_0" index="0" speed="13.89" length="19.28" shape="1500.00,-11.55 1508.66,-5.78 1511.55,0.00 1508.66,5.78 1500.00,11.55"/>
        <lane id=":gneJ52_0_1" index="1" speed="13.89" length="19.28" shape="1500.00,-8.25 1506.19,-4.12 1508.25,0.00 1506.19,4.12 1500.00,8.25"/>
        <lane id=":gneJ52_0_2" index="2" speed="13.89" length="19.28" shape="1500.00,-4.95 1503.71,-2.48 1504.95,0.00 1503.71,2.48 1500.00,4.95"/>
        <lane id=":gneJ52_0_3" index="3" speed="13.89" length="19.28" shape="1500.00,-1.65 1501.24,-0.83 1501.65,0.00 1501.24,0.83 1500.00,1.65"/>
    </edge>
    <edge id=":gneJ54_0" function="internal">
        <lane id=":gneJ54_0_0" index="0" speed="13.89" length="19.28" shape="-500.00,-988.45 -508.66,-994.23 -511.55,-1000.00 -508.66,-1005.77 -500.00,-1011.55"/>
        <lane id=":gneJ54_0_1" index="1" speed="13.89" length="19.28" shape="-500.00,-991.75 -506.19,-995.88 -508.25,-1000.00 -506.19,-1004.12 -500.00,-1008.25"/>
        <lane id=":gneJ54_0_2" index="2" speed="13.89" length="19.28" shape="-500.00,-995.05 -503.71,-997.52 -504.95,-1000.00 -503.71,-1002.48 -500.00,-1004.95"/>
        <lane id=":gneJ54_0_3" index="3" speed="13.89" length="19.28" shape="-500.00,-998.35 -501.24,-999.17 -501.65,-1000.00 -501.24,-1000.83 -500.00,-1001.65"/>
    </edge>
    <edge id=":gneJ55_0" function="internal">
        <lane id=":gneJ55_0_0" index="0" speed="13.89" length="19.28" shape="-11.55,-1500.00 -5.78,-1508.66 0.00,-1511.55 5.78,-1508.66 11.55,-1500.00"/>
        <lane id=":gneJ55_0_1" index="1" speed="13.89" length="19.28" shape="-8.25,-1500.00 -4.12,-1506.19 0.00,-1508.25 4.12,-1506.19 8.25,-1500.00"/>
        <lane id=":gneJ55_0_2" index="2" speed="13.89" length="19.28" shape="-4.95,-1500.00 -2.48,-1503.71 0.00,-1504.95 2.48,-1503.71 4.95,-1500.00"/>
        <lane id=":gneJ55_0_3" index="3" speed="13.89" length="19.28" shape="-1.65,-1500.00 -0.83,-1501.24 0.00,-1501.65 0.83,-1501.24 1.65,-1500.00"/>
    </edge>
    <edge id=":gneJ58_0" function="internal">
        <lane id=":gneJ58_0_0" index="0" speed="13.89" length="19.28" shape="1500.00,-1011.55 1508.66,-1005.77 1511.55,-1000.00 1508.66,-994.23 1500.00,-988.45"/>
        <lane id=":gneJ58_0_1" index="1" speed="13.89" length="19.28" shape="1500.00,-1008.25 1506.19,-1004.12 1508.25,-1000.00 1506.19,-995.88 1500.00,-991.75"/>
        <lane id=":gneJ58_0_2" index="2" speed="13.89" length="19.28" shape="1500.00,-1004.95 1503.71,-1002.48 1504.95,-1000.00 1503.71,-997.52 1500.00,-995.05"/>
        <lane id=":gneJ58_0_3" index="3" speed="13.89" length="19.28" shape="1500.00,-1001.65 1501.24,-1000.83 1501.65,-1000.00 1501.24,-999.17 1500.00,-998.35"/>
    </edge>

    <edge id="10o" from="gneJ2" to="gneJ52" priority="1">
        <lane id="10o_0" index="0" speed="13.89" length="488.65" shape="1011.35,-11.55 1500.00,-11.55"/>
        <lane id="10o_1" index="1" speed="13.89" length="488.65" shape="1011.35,-8.25 1500.00,-8.25"/>
        <lane id="10o_2" index="2" speed="13.89" length="488.65" shape="1011.35,-4.95 1500.00,-4.95"/>
        <lane id="10o_3" index="3" speed="13.89" length="488.65" shape="1011.35,-1.65 1500.00,-1.65"/>
    </edge>
    <edge id="10si" from="gneJ52" to="gneJ2" priority="1">
        <lane id="10si_0" index="0" speed="13.89" length="488.65" shape="1500.00,11.55 1011.35,11.55"/>
        <lane id="10si_1" index="1" speed="13.89" length="488.65" shape="1500.00,8.25 1011.35,8.25"/>
        <lane id="10si_2" index="2" speed="13.89" length="488.65" shape="1500.00,4.95 1011.35,4.95"/>
        <lane id="10si_3" index="3" speed="13.89" length="488.65" shape="1500.00,1.65 1011.35,1.65"/>
    </edge>
    <edge id="11o" from="gneJ2" to="gneJ47" priority="1">
        <lane id="11o_0" index="0" speed="13.89" length="485.35" shape="1008.25,14.65 1008.25,500.00"/>
        <lane id="11o_1" index="1" speed="13.89" length="485.35" shape="1004.95,14.65 1004.95,500.00"/>
        <lane id="11o_2" index="2" speed="13.89" length="485.35" shape="1001.65,14.65 1001.65,500.00"/>
    </edge>
    <edge id="11si" from="gneJ47" to="gneJ2" priority="1">
        <lane id="11si_0" index="0" speed="13.89" length="485.35" shape="991.75,500.00 991.75,14.65"/>
        <lane id="11si_1" index="1" speed="13.89" length="485.35" shape="995.05,500.00 995.05,14.65"/>
        <lane id="11si_2" index="2" speed="13.89" length="485.35" shape="998.35,500.00 998.35,14.65"/>
    </edge>
    <edge id="12o" from="gneJ2" to="gneJ3" priority="1">
        <lane id="12o_0" index="0" speed="13.89" length="1360.92" shape="977.66,-15.34 15.34,-977.66"/>
        <lane id="12o_1" index="1" speed="13.89" length="1360.92" shape="979.99,-17.68 17.68,-979.99"/>
    </edge>
    <edge id="12si" from="gneJ3" to="gneJ2" priority="1">
        <lane id="12si_0" index="0" speed="13.89" length="1360.92" shape="22.34,-984.66 984.66,-22.34"/>
        <lane id="12si_1" index="1" speed="13.89" length="1360.92" shape="20.01,-982.32 982.32,-20.01"/>
    </edge>
    <edge id="1o" from="gneJ1" to="gneJ19" priority="1">
        <lane id="1o_0" index="0" speed="13.89" length="485.35" shape="-14.65,11.55 -500.00,11.55"/>
        <lane id="1o_1" index="1" speed="13.89" length="485.35" shape="-14.65,8.25 -500.00,8.25"/>
        <lane id="1o_2" index="2" speed="13.89" length="485.35" shape="-14.65,4.95 -500.00,4.95"/>
        <lane id="1o_3" index="3" speed="13.89" length="485.35" shape="-14.65,1.65 -500.00,1.65"/>
    </edge>
    <edge id="1si" from="gneJ19" to="gneJ1" priority="1">
        <lane id="1si_0" index="0" speed="13.89" length="485.35" shape="-500.00,-11.55 -14.65,-11.55"/>
        <lane id="1si_1" index="1" speed="13.89" length="485.35" shape="-500.00,-8.25 -14.65,-8.25"/>
        <lane id="1si_2" index="2" speed="13.89" length="485.35" shape="-500.00,-4.95 -14.65,-4.95"/>
        <lane id="1si_3" index="3" speed="13.89" length="485.35" shape="-500.00,-1.65 -14.65,-1.65"/>
    </edge>
    <edge id="2o" from="gneJ1" to="gneJ2" priority="1">
        <lane id="2o_0" index="0" speed="13.89" length="961.44" shape="14.65,-11.55 976.09,-11.55"/>
        <lane id="2o_1" index="1" speed="13.89" length="961.44" shape="14.65,-8.25 976.09,-8.25"/>
        <lane id="2o_2" index="2" speed="13.89" length="961.44" shape="14.65,-4.95 976.09,-4.95"/>
        <lane id="2o_3" index="3" speed="13.89" length="961.44" shape="14.65,-1.65 976.09,-1.65"/>
    </edge>
    <edge id="2si" from="gneJ2" to="gneJ1" priority="1">
        <lane id="2si_0" index="0" speed="13.89" length="961.44" shape="976.09,11.55 14.65,11.55"/>
        <lane id="2si_1" index="1" speed="13.89" length="961.44" shape="976.09,8.25 14.65,8.25"/>
        <lane id="2si_2" index="2" speed="13.89" length="961.44" shape="976.09,4.95 14.65,4.95"/>
        <lane id="2si_3" index="3" speed="13.89" length="961.44" shape="976.09,1.65 14.65,1.65"/>
    </edge>
    <edge id="3o" from="gneJ1" to="gneJ3" priority="1">
        <lane id="3o_0" index="0" speed="13.89" length="961.44" shape="-11.55,-14.65 -11.55,-976.09"/>