<routes xmlns:xsi="http://www.w3.org/2001/XMLSchema-instance" xsi:noNamespaceSchemaLocation="http://sumo.dlr.de/xsd/routes_file.xsd">
    <vType id="SUMO_DEFAULT_TYPE" accel="1" decel="5" sigma="0.5" length="5" minGap="3" maxSpeed="20"/>
    
    
    <trip id="0" type="SUMO_DEFAULT_TYPE" depart="0" from="10si" to="9o"/>
    <trip id="1" type="SUMO_DEFAULT_TYPE" depart="0" from="3o" to="11si"/>
    <trip id="2" type="SUMO_DEFAULT_TYPE" depart="0" from="5si" to="4o"/>
    <trip id="3" type="SUMO_DEFAULT_TYPE" depart="0" from="1o" to="4o"/>
    <trip id="4" type="SUMO_DEFAULT_TYPE" depart="0" from="3si" to="1o"/>
    <trip id="5" type="SUMO_DEFAULT_TYPE" depart="0" from="1o" to="2si"/>
    <trip id="6" type="SUMO_DEFAULT_TYPE" depart="0" from="10o" to="2o"/>
    <trip id="7" type="SUMO_DEFAULT_TYPE" depart="0" from="2si" to="2si"/>
    <trip id="8" type="SUMO_DEFAULT_TYPE" depart="0" from="3o" to="9si"/>
    <trip id="9" type="SUMO_DEFAULT_TYPE" depart="0" from="9o" to="8o"/>
    <trip id="10" type="SUMO_DEFAULT_TYPE" depart="0" from="1o" to="11si"/>
    <trip id="11" type="SUMO_DEFAULT_TYPE" depart="0" from="4si" to="6o"/>
    <trip id="12" type="SUMO_DEFAULT_TYPE" depart="0" from="2si" to="7o"/>
    <trip id="13" type="SUMO_DEFAULT_TYPE" depart="0" from="2o" to="9o"/>
    <trip id="14" type="SUMO_DEFAULT_TYPE" depart="0" from="2o" to="10si"/>
    <trip id="15" type="SUMO_DEFAULT_TYPE" depart="0" from="5o" to="2si"/>
    <trip id="16" type="SUMO_DEFAULT_TYPE" depart="0" from="11si" to="7si"/>
    <trip id="17" type="SUMO_DEFAULT_TYPE" depart="0" from="1o" to="7o"/>
    <trip id="18" type="SUMO_DEFAULT_TYPE" depart="0" from="3o" to="8si"/>
    <trip id="19" type="SUMO_DEFAULT_TYPE" depart="0" from="8si" to="1o"/>
    <trip id="20" type="SUMO_DEFAULT_TYPE" depart="1" from="10o" to="4si"/>
    <trip id="21" type="SUMO_DEFAULT_TYPE" depart="2" from="4o" to="3o"/>
    <trip id="22" type="SUMO_DEFAULT_TYPE" depart="3" from="1o" to="2o"/>
    <trip id="23" type="SUMO_DEFAULT_TYPE" depart="4" from="10o" to="11si"/>
    <trip id="24" type="SUMO_DEFAULT_TYPE" depart="5" from="5si" to="1o"/>
    <trip id="25" type="SUMO_DEFAULT_TYPE" depart="6" from="1si" to="8si"/>
    <trip id="26" type="SUMO_DEFAULT_TYPE" depart="7" from="5o" to="1si"/>
    <trip id="27" type="SUMO_DEFAULT_TYPE" depart="8" from="2o" to="5si"/>
    <trip id="28" type="SUMO_DEFAULT_TYPE" depart="9" from="3si" to="7si"/>
    <trip id="29" type="SUMO_DEFAULT_TYPE" depart="10" from="11o" to="5si"/>
    <trip id="30" type="SUMO_DEFAULT_TYPE" depart="11" from="2o" to="7o"/>
    <trip id="31" type="SUMO_DEFAULT_TYPE" depart="12" from="9o" to="10o"/>
    <trip id="32" type="SUMO_DEFAULT_TYPE" depart="13" from="6o" to="11o"/>
    <trip id="33" type="SUMO_DEFAULT_TYPE" depart="14" from="3si" to="9si"/>
    <trip id="34" type="SUMO_DEFAULT_TYPE" depart="15" from="5si" to="6si"/>
    <trip id="35" type="SUMO_DEFAULT_TYPE" depart="16" from="7o" to="8si"/>
    <trip id="36" type="SUMO_DEFAULT_TYPE" depart="17" from="9si" to="4si"/>
    <trip id="37" type="SUMO_DEFAULT_TYPE" depart="18" from="7o" to="7si"/>
    <trip id="38" type="SUMO_DEFAULT_TYPE" depart="19" from="8o" to="11si"/>
    <trip id="39" type="SUMO_DEFAULT_TYPE" depart="20" from="6si" to="6si"/>
    <trip id="40" type="SUMO_DEFAULT_TYPE" depart="21" from="2si" to="9si"/>
    <trip id="41" type="SUMO_DEFAULT_TYPE" depart="22" from="7si" to="8o"/>
    <trip id="42" type="SUMO_DEFAULT_TYPE" depart="23" from="5o" to="1si"/>
    <trip id="43" type="SUMO_DEFAULT_TYPE" depart="24" from="11o" to="2o"/>
    <trip id="44" type="SUMO_DEFAULT_TYPE" depart="25" from="6si" to="7si"/>
    <trip id="45" type="SUMO_DEFAULT_TYPE" depart="26" from="2si" to="10si"/>
    <trip id="46" type="SUMO_DEFAULT_TYPE" depart="27" from="9o" to="4o"/>
    <trip id="47" type="SUMO_DEFAULT_TYPE" depart="28" from="8si" to="9o"/>
    <trip id="48" type="SUMO_DEFAULT_TYPE" depart="29" from="2si" to="4o"/>
    <trip id="49" type="SUMO_DEFAULT_TYPE" depart="30" from="1o" to="3o"/>
    <trip id="50" type="SUMO_DEFAULT_TYPE" depart="31" from="1o" to="1o"/>
    <trip id="51" type="SUMO_DEFAULT_TYPE" depart="32" from="8o" to="6si"/>
    <trip id="52" type="SUMO_DEFAULT_TYPE" depart="33" from="10si" to="8si"/>
    <trip id="53" type="SUMO_DEFAULT_TYPE" depart="34" from="11o" to="5si"/>
    <trip id="54" type="SUMO_DEFAULT_TYPE" depart="35" from="10o" to="11o"/>
    <trip id="55" type="SUMO_DEFAULT_TYPE" depart="36" from="4si" to="2si"/>
    <trip id="56" type="SUMO_DEFAULT_TYPE" depart="37" from="10si" to="11o"/>
    <trip id="57" type="SUMO_DEFAULT_TYPE" depart="38" from="9si" to="7o"/>
    <trip id="58" type="SUMO_DEFAULT_TYPE" depart="39" from="11o" to="10o"/>
    <trip id="59" type="SUMO_DEFAULT_TYPE" depart="40" from="1si" to="6si"/>
    <trip id="60" type="SUMO_DEFAULT_TYPE" depart="41" from="5si" to="5o"/>
    <trip id="61" type="SUMO_DEFAULT_TYPE" depart="42" from="10si" to="1o"/>
    <trip id="62" type="SUMO_DEFAULT_TYPE" depart="43" from="1o" to="3o"/>
    <trip id="63" type="SUMO_DEFAULT_TYPE" depart="44" from="7o" to="4si"/>
    <trip id="64" type="SUMO_DEFAULT_TYPE" depart="45" from="10o" to="9si"/>
    <trip id="65" type="SUMO_DEFAULT_TYPE" depart="46" from="9o" to="6si"/>
    <trip id="66" type="SUMO_DEFAULT_TYPE" depart="47" from="7o" to="10si"/>
    <trip id="67" type="SUMO_DEFAULT_TYPE" depart="48" from="1si" to="2o"/>
    <trip id="68" type="SUMO_DEFAULT_TYPE" depart="49" from="5o" to="11o"/>
    <trip id="69" type="SUMO_DEFAULT_TYPE" depart="50" from="8o" to="8si"/>
    <trip id="70" type="SUMO_DEFAULT_TYPE" depart="51" from="9si" to="1o"/>
    <trip id="71" type="SUMO_DEFAULT_TYPE" depart="52" from="4si" to="9si"/>
    <trip id="72" type="SUMO_DEFAULT_TYPE" depart="53" from="4si" to="9o"/>
    <trip id="73" type="SUMO_DEFAULT_TYPE" depart="54" from="6o" to="5si"/>
    <trip id="74" type="SUMO_DEFAULT_TYPE" depart="55" from="4o" to="7o"/>
    <trip id="75" type="SUMO_DEFAULT_TYPE" depart="56" from="11o" to="1o"/>
    <trip id="76" type="SUMO_DEFAULT_TYPE" depart="57" from="9o" to="11o"/>
    <trip id="77" type="SUMO_DEFAULT_TYPE" depart="58" from="10si" to="1o"/>
    <trip id="78" type="SUMO_DEFAULT_TYPE" depart="59" from="11o" to="7si"/>
    <trip id="79" type="SUMO_DEFAULT_TYPE" depart="60" from="9si" to="3o"/>
    <trip id="80" type="SUMO_DEFAULT_TYPE" depart="61" from="3o" to="6si"/>
    <trip id="81" type="SUMO_DEFAULT_TYPE" depart="62" from="8o" to="11o"/>
    <trip id="82" type="SUMO_DEFAULT_TYPE" depart="63" from="8o" to="11o"/>
    <trip id="83" type="SUMO_DEFAULT_TYPE" depart="64" from="5si" to="5o"/>
    <trip id="84" type="SUMO_DEFAULT_TYPE" depart="65" from="7o" to="10si"/>
    <trip id="85" type="SUMO_DEFAULT_TYPE" depart="66" from="9si" to="8si"/>
    <trip id="86" type="SUMO_DEFAULT_TYPE" depart="67" from="4si" to="10si"/>
    <trip id="87" type="SUMO_DEFAULT_TYPE" depart="68" from="1o" to="8si"/>
    <trip id="88" type="SUMO_DEFAULT_TYPE" depart="69" from="2o" to="3si"/>
    <trip id="89" type="SUMO_DEFAULT_TYPE" depart="70" from="6si" to="9o"/>
    <trip id="90" type="SUMO_DEFAULT_TYPE" depart="71" from="7si" to="11o"/>
    <trip id="91" type="SUMO_DEFAULT_TYPE" depart="72" from="3o" to="4o"/>
    <trip id="92" type="SUMO_DEFAULT_TYPE" depart="73" from="2si" to="4si"/>
    <trip id="93" type="SUMO_DEFAULT_TYPE" depart="74" from="9o" to="2si"/>
    <trip id="94" type="SUMO_DEFAULT_TYPE" depart="75" from="10si" to="3si"/>
    <trip id="95" type="SUMO_DEFAULT_TYPE" depart="76" from="11o" to="11si"/>
    <trip id="96" type="SUMO_DEFAULT_TYPE" depart="77" from="11si" to="8si"/>
    <trip id="97" type="SUMO_DEFAULT_TYPE" depart="78" from="11o" to="10si"/>
    <trip id="98" type="SUMO_DEFAULT_TYPE" depart="79" from="10si" to="8si"/>
    <trip id="99" type="SUMO_DEFAULT_TYPE" depart="80" from="6si" to="5si"/>
    <trip id="100" type="SUMO_DEFAULT_TYPE" depart="81" from="7si" to="11o"/>
    <trip id="101" type="SUMO_DEFAULT_TYPE" depart="82" from="11si" to="2si"/>
    <trip id="102" type="SUMO_DEFAULT_TYPE" depart="83" from="2o" to="8si"/>
    <trip id="103" type="SUMO_DEFAULT_TYPE" depart="84" from="3si" to="1si"/>
    <trip id="104" type="SUMO_DEFAULT_TYPE" depart="85" from="7si" to="3si"/>
    <trip id="105" type="SUMO_DEFAULT_TYPE" depart="86" from="4si" to="4o"/>
    <trip id="106" type="SUMO_DEFAULT_TYPE" depart="87" from="10o" to="3o"/>
    <trip id="107" type="SUMO_DEFAULT_TYPE" depart="88" from="5o" to="10o"/>
    <trip id="108" type="SUMO_DEFAULT_TYPE" depart="89" from="3o" to="10o"/>
    <trip id="109" type="SUMO_DEFAULT_TYPE" depart="90" from="11o" to="2o"/>
    <trip id="110" type="SUMO_DEFAULT_TYPE" depart="91" from="11si" to="1o"/>
    <trip id="111" type="SUMO_DEFAULT_TYPE" depart="92" from="6si" to="6o"/>
    <trip id="112" type="SUMO_DEFAULT_TYPE" depart="93" from="9si" to="3o"/>
    <trip id="113" type="SUMO_DEFAULT_TYPE" depart="94" from="10si" to="4o"/>
    <trip id="114" type="SUMO_DEFAULT_TYPE" depart="95" from="11o" to="2si"/>
    <trip id="115" type="SUMO_DEFAULT_TYPE" depart="96" from="6si" to="7o"/>
    <trip id="116" type="SUMO_DEFAULT_TYPE" depart="97" from="6si" to="3si"/>
    <trip id="117" type="SUMO_DEFAULT_TYPE" depart="98" from="3o" to="11o"/>
    <trip id="118" type="SUMO_DEFAULT_TYPE" depart="99" from="1si" to="3o"/>
    <trip id="119" type="SUMO_DEFAULT_TYPE" depart="100" from="6o" to="4si"/>
    <trip id="120" type="SUMO_DEFAULT_TYPE" depart="101" from="2o" to="10si"/>
    <trip id="121" type="SUMO_DEFAULT_TYPE" depart="102" from="2si" to="3si"/>
    <trip id="122" type="SUMO_DEFAULT_TYPE" depart="103" from="8o" to="10si"/>
    <trip id="123" type="SUMO_DEFAULT_TYPE" depart="104" from="8si" to="4o"/>
    <trip id="124" type="SUMO_DEFAULT_TYPE" depart="105" from="9o" to="7si"/>
    <trip id="125" type="SUMO_DEFAULT_TYPE" depart="106" from="1o" to="10si"/>
    <trip id="126" type="SUMO_DEFAULT_TYPE" depart="107" from="11o" to="2si"/>
    <trip id="127" type="SUMO_DEFAULT_TYPE" depart="108" from="9si" to="9o"/>
    <trip id="128" type="SUMO_DEFAULT_TYPE" depart="109" from="1si" to="1si"/>
    <trip id="129" type="SUMO_DEFAULT_TYPE" depart="110" from="3o" to="11si"/>
    <trip id="130" type="SUMO_DEFAULT_TYPE" depart="111" from="8si" to="11o"/>
    <trip id="131" type="SUMO_DEFAULT_TYPE" depart="112" from="8o" to="7si"/>
    <trip id="132" type="SUMO_DEFAULT_TYPE" depart="113" from="2o" to="10o"/>
    <trip id="133" type="SUMO_DEFAULT_TYPE" depart="114" from="11o" to="9si"/>
    <trip id="134" type="SUMO_DEFAULT_TYPE" depart="115" from="9o" to="2o"/>
    <trip id="135" type="SUMO_DEFAULT_TYPE" depart="116" from="8si" to="4o"/>
    <trip id="136" type="SUMO_DEFAULT_TYPE" depart="117" from="6o" to="11o"/>
    <trip id="137" type="SUMO_DEFAULT_TYPE" depart="118" from="7si" to="4o"/>
    <trip id="138" type="SUMO_DEFAULT_TYPE" depart="119" from="6si" to="4o"/>
    <trip id="139" type="SUMO_DEFAULT_TYPE" depart="120" from="9si" to="9si"/>
    <trip id="140" type="SUMO_DEFAULT_TYPE" depart="121" from="4si" to="1si"/>
    <trip id="141" type="SUMO_DEFAULT_TYPE" depart="122" from="2si" to="11si"/>
    <trip id="142" type="SUMO_DEFAULT_TYPE" depart="123" from="5o" to="7o"/>
    <trip id="143" type="SUMO_DEFAULT_TYPE" depart="124" from="6si" to="1o"/>
    <trip id="144" type="SUMO_DEFAULT_TYPE" depart="125" from="8o" to="7o"/>
    <trip id="145" type="SUMO_DEFAULT_TYPE" depart="126" from="4si" to="6o"/>
    <trip id="146" type="SUMO_DEFAULT_TYPE" depart="127" from="7si" to="6si"/>
    <trip id="147" type="SUMO_DEFAULT_TYPE" depart="128" from="8si" to="6si"/>
    <trip id="148" type="SUMO_DEFAULT_TYPE" depart="129" from="6o" to="9si"/>
    <trip id="149" type="SUMO_DEFAULT_TYPE" depart="130" from="9o" to="2o"/>
    <trip id="150" type="SUMO_DEFAULT_TYPE" depart="131" from="1o" to="2si"/>
    <trip id="151" type="SUMO_DEFAULT_TYPE" depart="132" from="5o" to="10si"/>
    <trip id="152" type="SUMO_DEFAULT_TYPE" depart="133" from="2si" to="7si"/>
    <trip id="153" type="SUMO_DEFAULT_TYPE" depart="134" from="6o" to="6si"/>
    <trip id="154" type="SUMO_DEFAULT_TYPE" depart="135" from="2si" to="9o"/>
    <trip id="155" type="SUMO_DEFAULT_TYPE" depart="136" from="2si" to="8o"/>
    <trip id="156" type="SUMO_DEFAULT_TYPE" depart="137" from="6si" to="1si"/>
    <trip id="157" type="SUMO_DEFAULT_TYPE" depart="138" from="3si" to="11o"/>
    <trip id="158" type="SUMO_DEFAULT_TYPE" depart="139" from="9si" to="3si"/>
    <trip id="159" type="SUMO_DEFAULT_TYPE" depart="140" from="10si" to="1o"/>
    <trip id="160" type="SUMO_DEFAULT_TYPE" depart="141" from="2si" to="6si"/>
    <trip id="161" type="SUMO_DEFAULT_TYPE" depart="142" from="5o" to="4o"/>
    <trip id="162" type="SUMO_DEFAULT_TYPE" depart="143" from="8o" to="9si"/>
    <trip id="163" type="SUMO_DEFAULT_TYPE" depart="144" from="6si" to="10o"/>
    <trip id="164" type="SUMO_DEFAULT_TYPE" depart="145" from="6o" to="6o"/>
    <trip id="165" type="SUMO_DEFAULT_TYPE" depart="146" from="9o" to="3si"/>
    <trip id="166" type="SUMO_DEFAULT_TYPE" depart="147" from="9si" to="5si"/>
    <trip id="167" type="SUMO_DEFAULT_TYPE" depart="148" from="6si" to="5si"/>
    <trip id="168" type="SUMO_DEFAULT_TYPE" depart="149" from="4o" to="3o"/>
    <trip id="169" type="SUMO_DEFAULT_TYPE" depart="150" from="5si" to="5o"/>
    <trip id="170" type="SUMO_DEFAULT_TYPE" depart="151" from="4si" to="8si"/>
    <trip id="171" type="SUMO_DEFAULT_TYPE" depart="152" from="5o" to="6si"/>
    <trip id="172" type="SUMO_DEFAULT_TYPE" depart="153" from="1si" to="10o"/>
    <trip id="173" type="SUMO_DEFAULT_TYPE" depart="154" from="11o" to="9si"/>
    <trip id="174" type="SUMO_DEFAULT_TYPE" depart="155" from="9si" to="3si"/>
    <trip id="175" type="SUMO_DEFAULT_TYPE" depart="156" from="7si" to="2o"/>
    <trip id="176" type="SUMO_DEFAULT_TYPE" depart="157" from="1o" to="11o"/>
    <trip id="177" type="SUMO_DEFAULT_TYPE" depart="158" from="1o" to="11o"/>
    <trip id="178" type="SUMO_DEFAULT_TYPE" depart="159" from="9si" to="7si"/>
    <trip id="179" type="SUMO_DEFAULT_TYPE" depart="160" from="10o" to="9o"/>
    <trip id="180" type="SUMO_DEFAULT_TYPE" depart="161" from="10o" to="5si"/>
    <trip id="181" type="SUMO_DEFAULT_TYPE" depart="162" from="1o" to="1si"/>
    <trip id="182" type="SUMO_DEFAULT_TYPE" depart="163" from="7o" to="6o"/>
    <trip id="183" type="SUMO_DEFAULT_TYPE" depart="164" from="6o" to="1o"/>
    <trip id="184" type="SUMO_DEFAULT_TYPE" depart="165" from="3si" to="9o"/>
    <trip id="185" type="SUMO_DEFAULT_TYPE" depart="166" from="1o" to="5si"/>
    <trip id="186" type="SUMO_DEFAULT_TYPE" depart="167" from="10si" to="4si"/>
    <trip id="187" type="SUMO_DEFAULT_TYPE" depart="168" from="2o" to="5si"/>
    <trip id="188" type="SUMO_DEFAULT_TYPE" depart="169" from="3si" to="8si"/>
    <trip id="189" type="SUMO_DEFAULT_TYPE" depart="170" from="1o" to="4si"/>
    <trip id="190" type="SUMO_DEFAULT_TYPE" depart="171" from="8si" to="2o"/>
    <trip id="191" type="SUMO_DEFAULT_TYPE" depart="172" from="9si" to="2si"/>
    <trip id="192" type="SUMO_DEFAULT_TYPE" depart="173" from="1o" to="10o"/>
    <trip id="193" type="SUMO_DEFAULT_TYPE" depart="174" from="10o" to="5si"/>
    <trip id="194" type="SUMO_DEFAULT_TYPE" depart="175" from="10o" to="11si"/>
    <trip id="195" type="SUMO_DEFAULT_TYPE" depart="176" from="11o" to="9o"/>
    <trip id="196" type="SUMO_DEFAULT_TYPE" depart="177" from="2o" to="10si"/>
    <trip id="197" type="SUMO_DEFAULT_TYPE" depart="178" from="4o" to="9o"/>
    <trip id="198" type="SUMO_DEFAULT_TYPE" depart="179" from="3si" to="3o"/>
    <trip id="199" type="SUMO_DEFAULT_TYPE" depart="180" from="10o" to="1o"/>
    <trip id="200" type="SUMO_DEFAULT_TYPE" depart="181" from="4o" to="1si"/>
    <trip id="201" type="SUMO_DEFAULT_TYPE" depart="182" from="10o" to="3o"/>
    <trip id="202" type="SUMO_DEFAULT_TYPE" depart="183" from="7o" to="11si"/>
    <trip id="203" type="SUMO_DEFAULT_TYPE" depart="184" from="5si" to="10o"/>
    <trip id="204" type="SUMO_DEFAULT_TYPE" depart="185" from="1si" to="5si"/>
    <trip id="205" type="SUMO_DEFAULT_TYPE" depart="186" from="4si" to="2si"/>
    <trip id="206" type="SUMO_DEFAULT_TYPE" depart="187" from="7si" to="2o"/>
    <trip id="207" type="SUMO_DEFAULT_TYPE" depart="188" from="4o" to="9si"/>
    <trip id="208" type="SUMO_DEFAULT_TYPE" depart="189" from="11si" to="4o"/>
    <trip id="209" type="SUMO_DEFAULT_TYPE" depart="190" from="5si" to="7o"/>
    <trip id="210" type="SUMO_DEFAULT_TYPE" depart="191" from="11o" to="4o"/>
    <trip id="211" type="SUMO_DEFAULT_TYPE" depart="192" from="4si" to="8si"/>
    <trip id="212" type="SUMO_DEFAULT_TYPE" depart="193" from="5o" to="11si"/>
    <trip id="213" type="SUMO_DEFAULT_TYPE" depart="194" from="11si" to="7si"/>
    <trip id="214" type="SUMO_DEFAULT_TYPE" depart="195" from="4si" to="10si"/>
    <trip id="215" type="SUMO_DEFAULT_TYPE" depart="196" from="9si" to="5si"/>
    <trip id="216" type="SUMO_DEFAULT_TYPE" depart="197" from="5o" to="8o"/>
    <trip id="217" type="SUMO_DEFAULT_TYPE" depart="198" from="8o" to="3si"/>
    <trip id="218" type="SUMO_DEFAULT_TYPE" depart="199" from="3o" to="6o"/>
    <trip id="219" type="SUMO_DEFAULT_TYPE" depart="200" from="5o" to="2si"/>
    <trip id="220" type="SUMO_DEFAULT_TYPE" depart="201" from="10si" to="1si"/>
    <trip id="221" type="SUMO_DEFAULT_TYPE" depart="202" from="6o" to="8o"/>
    <trip id="222" type="SUMO_DEFAULT_TYPE" depart="203" from="4si" to="11si"/>
    <trip id="223" type="SUMO_DEFAULT_TYPE" depart="204" from="1o" to="9si"/>
    <trip id="224" type="SUMO_DEFAULT_TYPE" depart="205" from="5si" to="3si"/>
    <trip id="225" type="SUMO_DEFAULT_TYPE" depart="206" from="5si" to="10o"/>
    <trip id="226" type="SUMO_DEFAULT_TYPE" depart="207" from="5o" to="4o"/>
    <trip id="227" type="SUMO_DEFAULT_TYPE" depart="208" from="9si" to="4si"/>
    <trip id="228" type="SUMO_DEFAULT_TYPE" depart="209" from="6si" to="1si"/>
    <trip id="229" type="SUMO_DEFAULT_TYPE" depart="210" from="2si" to="3o"/>
    <trip id="230" type="SUMO_DEFAULT_TYPE" depart="211" from="11si" to="5o"/>
    <trip id="231" type="SUMO_DEFAULT_TYPE" depart="212" from="10si" to="11si"/>
    <trip id="232" type="SUMO_DEFAULT_TYPE" depart="213" from="9si" to="5o"/>
    <trip id="233" type="SUMO_DEFAULT_TYPE" depart="214" from="10o" to="8o"/>
    <trip id="234" type="SUMO_DEFAULT_TYPE" depart="215" from="4si" to="10o"/>
    <trip id="235" type="SUMO_DEFAULT_TYPE" depart="216" from="8o" to="6o"/>
    <trip id="236" type="SUMO_DEFAULT_TYPE" depart="217" from="11o" to="6o"/>
    <trip id="237" type="SUMO_DEFAULT_TYPE" depart="218" from="5si" to="3o"/>
    <trip id="238" type="SUMO_DEFAULT_TYPE" depart="219" from="11si" to="4si"/>
    <trip id="239" type="SUMO_DEFAULT_TYPE" depart="220" from="9si" to="11si"/>
    <trip id="240" type="SUMO_DEFAULT_TYPE" depart="221" from="11o" to="10o"/>
    <trip id="241" type="SUMO_DEFAULT_TYPE" depart="222" from="9si" to="3o"/>
    <trip id="242" type="SUMO_DEFAULT_TYPE" depart="223" from="9o" to="10o"/>
    <trip id="243" type="SUMO_DEFAULT_TYPE" depart="224" from="7o" to="8si"/>
    <trip id="244" type="SUMO_DEFAULT_TYPE" depart="225" from="3o" to="11si"/>
    <trip id="245" type="SUMO_DEFAULT_TYPE" depart="226" from="8o" to="3si"/>
    <trip id="246" type="SUMO_DEFAULT_TYPE" depart="227" from="11si" to="8o"/>
    <trip id="247" type="SUMO_DEFAULT_TYPE" depart="228" from="11si" to="9o"/>
    <trip id="248" type="SUMO_DEFAULT_TYPE" depart="229" from="4si" to="6si"/>
    <trip id="249" type="SUMO_DEFAULT_TYPE" depart="230" from="9o" to="9o"/>
    <trip id="250" type="SUMO_DEFAULT_TYPE" depart="231" from="2si" to="3o"/>
    <trip id="251" type="SUMO_DEFAULT_TYPE" depart="232" from="1si" to="3si"/>
    <trip id="252" type="SUMO_DEFAULT_TYPE" depart="233" from="9si" to="6o"/>
    <trip id="253" type="SUMO_DEFAULT_TYPE" depart="234" from="4o" to="7o"/>
    <trip id="254" type="SUMO_DEFAULT_TYPE" depart="235" from="11si" to="5o"/>
    <trip id="255" type="SUMO_DEFAULT_TYPE" depart="236" from="11o" to="9si"/>
    <trip id="256" type="SUMO_DEFAULT_TYPE" depart="237" from="9o" to="8o"/>
    <trip id="257" type="SUMO_DEFAULT_TYPE" depart="238" from="10si" to="4o"/>
    <trip id="258" type="SUMO_DEFAULT_TYPE" depart="239" from="4si" to="10o"/>
    <trip id="259" type="SUMO_DEFAULT_TYPE" depart="240" from="7o" to="2o"/>
    <trip id="260" type="SUMO_DEFAULT_TYPE" depart="241" from="7si" to="2si"/>
    <trip id="261" type="SUMO_DEFAULT_TYPE" depart="242" from="4o" to="9o"/>
    <trip id="262" type="SUMO_DEFAULT_TYPE" depart="243" from="1si" to="6si"/>
    <trip id="263" type="SUMO_DEFAULT_TYPE" depart="244" from="6si" to="9si"/>
    <trip id="264" type="SUMO_DEFAULT_TYPE" depart="245" from="10si" to="1o"/>
    <trip id="265" type="SUMO_DEFAULT_TYPE" depart="246" from="8si" to="7o"/>
    <trip id="266" type="SUMO_DEFAULT_TYPE" depart="247" from="4si" to="8o"/>
    <trip id="267" type="SUMO_DEFAULT_TYPE" depart="248" from="10o" to="3o"/>
    <trip id="268" type="SUMO_DEFAULT_TYPE" depart="249" from="7o" to="9si"/>
    <trip id="269" type="SUMO_DEFAULT_TYPE" depart="250" from="6si" to="10si"/>
    <trip id="270" type="SUMO_DEFAULT_TYPE" depart="251" from="1o" to="11si"/>
    <trip id="271" type="SUMO_DEFAULT_TYPE" depart="252" from="2si" to="2si"/>
    <trip id="272" type="SUMO_DEFAULT_TYPE" depart="253" from="7o" to="10si"/>
    <trip id="273" type="SUMO_DEFAULT_TYPE" depart="254" from="4si" to="9si"/>
    <trip id="274" type="SUMO_DEFAULT_TYPE" depart="255" from="4si" to="1o"/>
    <trip id="275" type="SUMO_DEFAULT_TYPE" depart="256" from="1si" to="1si"/>
    <trip id="276" type="SUMO_DEFAULT_TYPE" depart="257" from="9o" to="6si"/>
    <trip id="277" type="SUMO_DEFAULT_TYPE" depart="258" from="5o" to="10si"/>
    <trip id="278" type="SUMO_DEFAULT_TYPE" depart="259" from="4o" to="5o"/>
    <trip id="279" type="SUMO_DEFAULT_TYPE" depart="260" from="11si" to="7si"/>
    <trip id="280" type="SUMO_DEFAULT_TYPE" depart="261" from="7o" to="8o"/>
    <trip id="281" type="SUMO_DEFAULT_TYPE" depart="262" from="6o" to="11o"/>
    <trip id="282" type="SUMO_DEFAULT_TYPE" depart="263" from="10si" to="2si"/>
    <trip id="283" type="SUMO_DEFAULT_TYPE" depart="264" from="6si" to="3o"/>
    <trip id="284" type="SUMO_DEFAULT_TYPE" depart="265" from="10o" to="5o"/>
    <trip id="285" type="SUMO_DEFAULT_TYPE" depart="266" from="9si" to="6si"/>
    <trip id="286" type="SUMO_DEFAULT_TYPE" depart="267" from="4si" to="4si"/>
    <trip id="287" type="SUMO_DEFAULT_TYPE" depart="268" from="5si" to="11si"/>
    <trip id="288" type="SUMO_DEFAULT_TYPE" depart="269" from="9si" to="8si"/>
    <trip id="289" type="SUMO_DEFAULT_TYPE" depart="270" from="11o" to="11o"/>
    <trip id="290" type="SUMO_DEFAULT_TYPE" depart="271" from="8o" to="3o"/>
    <trip id="291" type="SUMO_DEFAULT_TYPE" depart="272" from="1si" to="5o"/>
    <trip id="292" type="SUMO_DEFAULT_TYPE" depart="273" from="9si" to="7o"/>
    <trip id="293" type="SUMO_DEFAULT_TYPE" depart="274" from="9o" to="5si"/>
    <trip id="294" type="SUMO_DEFAULT_TYPE" depart="275" from="7o" to="6si"/>
    <trip id="295" type="SUMO_DEFAULT_TYPE" depart="276" from="6si" to="10o"/>
    <trip id="296" type="SUMO_DEFAULT_TYPE" depart="277" from="7si" to="6si"/>
    <trip id="297" type="SUMO_DEFAULT_TYPE" depart="278" from="11o" to="11si"/>
    <trip id="298" type="SUMO_DEFAULT_TYPE" depart="279" from="2o" to="8o"/>
    <trip id="299" type="SUMO_DEFAULT_TYPE" depart="280" from="10si" to="4si"/>
    <trip id="300" type="SUMO_DEFAULT_TYPE" depart="281" from="8o" to="8o"/>
    <trip id="301" type="SUMO_DEFAULT_TYPE" depart="282" from="5o" to="1o"/>
    <trip id="302" type="SUMO_DEFAULT_TYPE" depart="283" from="1si" to="3o"/>
    <trip id="303" type="SUMO_DEFAULT_TYPE" depart="284" from="9si" to="11o"/>
    <trip id="304" type="SUMO_DEFAULT_TYPE" depart="285" from="6o" to="10si"/>
    <trip id="305" type="SUMO_DEFAULT_TYPE" depart="286" from="8o" to="8o"/>
    <trip id="306" type="SUMO_DEFAULT_TYPE" depart="287" from="11o" to="1o"/>
    <trip id="307" type="SUMO_DEFAULT_TYPE" depart="288" from="11o" to="1si"/>
    <trip id="308" type="SUMO_DEFAULT_TYPE" depart="289" from="3si" to="10o"/>
    <trip id="309" type="SUMO_DEFAULT_TYPE" depart="290" from="2o" to="1si"/>
    <trip id="310" type="SUMO_DEFAULT_TYPE" depart="291" from="10si" to="2si"/>
    <trip id="311" type="SUMO_DEFAULT_TYPE" depart="292" from="11si" to="2si"/>
    <trip id="312" type="SUMO_DEFAULT_TYPE" depart="293" from="3o" to="6si"/>
    <trip id="313" type="SUMO_DEFAULT_TYPE" depart="294" from="1o" to="9si"/>
    <trip id="314" type="SUMO_DEFAULT_TYPE" depart="295" from="4si" to="7si"/>
    <trip id="315" type="SUMO_DEFAULT_TYPE" depart="296" from="6si" to="1o"/>
    <trip id="316" type="SUMO_DEFAULT_TYPE" depart="297" from="2o" to="6si"/>
    <trip id="317" type="SUMO_DEFAULT_TYPE" depart="298" from="4si" to="8o"/>
    <trip id="318" type="SUMO_DEFAULT_TYPE" depart="299" from="8si" to="7o"/>
    <trip id="319" type="SUMO_DEFAULT_TYPE" depart="300" from="3si" to="9o"/>
    <trip id="320" type="SUMO_DEFAULT_TYPE" depart="301" from="10o" to="10si"/>
    <trip id="321" type="SUMO_DEFAULT_TYPE" depart="302" from="6si" to="8o"/>
    <trip id="322" type="SUMO_DEFAULT_TYPE" depart="303" from="8o" to="4si"/>
    <trip id="323" type="SUMO_DEFAULT_TYPE" depart="304" from="1si" to="11o"/>
    <trip id="324" type="SUMO_DEFAULT_TYPE" depart="305" from="8o" to="1o"/>
    <trip id="325" type="SUMO_DEFAULT_TYPE" depart="306" from="5si" to="1o"/>
    <trip id="326" type="SUMO_DEFAULT_TYPE" depart="307" from="2o" to="5si"/>
    <trip id="327" type="SUMO_DEFAULT_TYPE" depart="308" from="5o" to="4o"/>
    <trip id="328" type="SUMO_DEFAULT_TYPE" depart="309" from="7si" to="7si"/>
    <trip id="329" type="SUMO_DEFAULT_TYPE" depart="310" from="3si" to="5si"/>
    <trip id="330" type="SUMO_DEFAULT_TYPE" depart="311" from="4si" to="7o"/>
    <trip id="331" type="SUMO_DEFAULT_TYPE" depart="312" from="6si" to="2o"/>
    <trip id="332" type="SUMO_DEFAULT_TYPE" depart="313" from="10si" to="8o"/>
    <trip id="333" type="SUMO_DEFAULT_TYPE" depart="314" from="3o" to="7o"/>
    <trip id="334" type="SUMO_DEFAULT_TYPE" depart="315" from="2si" to="1si"/>
    <trip id="335" type="SUMO_DEFAULT_TYPE" depart="316" from="1si" to="3si"/>
    <trip id="336" type="SUMO_DEFAULT_TYPE" depart="317" from="1si" to="4o"/>
    <trip id="337" type="SUMO_DEFAULT_TYPE" depart="318" from="3o" to="1si"/>
    <trip id="338" type="SUMO_DEFAULT_TYPE" depart="319" from="5o" to="10si"/>
    <trip id="339" type="SUMO_DEFAULT_TYPE" depart="320" from="5si" to="11o"/>
    <trip id="340" type="SUMO_DEFAULT_TYPE" depart="321" from="6o" to="8si"/>
    <trip id="341" type="SUMO_DEFAULT_TYPE" depart="322" from="7si" to="4si"/>
    <trip id="342" type="SUMO_DEFAULT_TYPE" depart="323" from="6si" to="8o"/>
    <trip id="343" type="SUMO_DEFAULT_TYPE" depart="324" from="4si" to="6si"/>
    <trip id="344" type="SUMO_DEFAULT_TYPE" depart="325" from="9o" to="4si"/>
    <trip id="345" type="SUMO_DEFAULT_TYPE" depart="326" from="6o" to="4o"/>
    <trip id="346" type="SUMO_DEFAULT_TYPE" depart="327" from="11si" to="1si"/>
    <trip id="347" type="SUMO_DEFAULT_TYPE" depart="328" from="2si" to="9o"/>
    <trip id="348" type="SUMO_DEFAULT_TYPE" depart="329" from="1si" to="7si"/>
    <trip id="349" type="SUMO_DEFAULT_TYPE" depart="330" from="7o" to="7si"/>
    <trip id="350" type="SUMO_DEFAULT_TYPE" depart="331" from="7o" to="6o"/>
    <trip id="351" type="SUMO_DEFAULT_TYPE" depart="332" from="2si" to="11o"/>
    <trip id="352" type="SUMO_DEFAULT_TYPE" depart="333" from="10si" to="10o"/>
    <trip id="353" type="SUMO_DEFAULT_TYPE" depart="334" from="10si" to="7o"/>
    <trip id="354" type="SUMO_DEFAULT_TYPE" depart="335" from="11si" to="5o"/>
    <trip id="355" type="SUMO_DEFAULT_TYPE" depart="336" from="8o" to="2o"/>
    <trip id="356" type="SUMO_DEFAULT_TYPE" depart="337" from="2o" to="7o"/>
    <trip id="357" type="SUMO_DEFAULT_TYPE" depart="338" from="10si" to="9si"/>
    <trip id="358" type="SUMO_DEFAULT_TYPE" depart="339" from="6o" to="9o"/>
    <trip id="359" type="SUMO_DEFAULT_TYPE" depart="340" from="6si" to="2o"/>
    <trip id="360" type="SUMO_DEFAULT_TYPE" depart="341" from="6o" to="11si"/>
    <trip id="361" type="SUMO_DEFAULT_TYPE" depart="342" from="5si" to="7si"/>
    <trip id="362" type="SUMO_DEFAULT_TYPE" depart="343" from="3si" to="7o"/>
    <trip id="363" type="SUMO_DEFAULT_TYPE" depart="344" from="7si" to="3o"/>
    <trip id="364" type="SUMO_DEFAULT_TYPE" depart="345" from="10si" to="10si"/>
    <trip id="365" type="SUMO_DEFAULT_TYPE" depart="346" from="3si" to="4o"/>
    <trip id="366" type="SUMO_DEFAULT_TYPE" depart="347" from="7o" to="7si"/>
    <trip id="367" type="SUMO_DEFAULT_TYPE" depart="348" from="9o" to="1si"/>
    <trip id="368" type="SUMO_DEFAULT_TYPE" depart="349" from="3o" to="4si"/>
    <trip id="369" type="SUMO_DEFAULT_TYPE" depart="350" from="1si" to="6si"/>
    <trip id="370" type="SUMO_DEFAULT_TYPE" depart="351" from="9o" to="10si"/>
    <trip id="371" type="SUMO_DEFAULT_TYPE" depart="352" from="4si" to="3si"/>
    <trip id="372" type="SUMO_DEFAULT_TYPE" depart="353" from="7o" to="6si"/>
    <trip id="373" type="SUMO_DEFAULT_TYPE" depart="354" from="10o" to="5o"/>
    <trip id="374" type="SUMO_DEFAULT_TYPE" depart="355" from="4si" to="2o"/>
    <trip id="375" type="SUMO_DEFAULT_TYPE" depart="356" from="4o" to="9si"/>
    <trip id="376" type="SUMO_DEFAULT_TYPE" depart="357" from="7o" to="2si"/>
    <trip id="377" type="SUMO_DEFAULT_TYPE" depart="358" from="11si" to="10o"/>
    <trip id="378" type="SUMO_DEFAULT_TYPE" depart="359" from="3si" to="2si"/>
    <trip id="379" type="SUMO_DEFAULT_TYPE" depart="360" from="7si" to="9o"/>
    <trip id="380" type="SUMO_DEFAULT_TYPE" depart="361" from="7si" to="10si"/>
    <trip id="381" type="SUMO_DEFAULT_TYPE" depart="362" from="4o" to="9o"/>